version 3
run Default-0-20250915-22:14:07-17226
attr configname Default
attr datetime 20250915-22:14:07
attr datetimef 20250915-221407
attr experiment Default
attr inifile omnetpp.ini
attr iterationvars ""
attr iterationvarsd ""
attr iterationvarsf ""
attr measurement ""
attr network ComplexNetwork
attr processid 17226
attr repetition 0
attr replication #0
attr resultdir results
attr runnumber 0
attr seedset 0
config image-path ../../../veins-5.3.1/images
config cmdenv-express-mode true
config cmdenv-autoflush true
config cmdenv-status-frequency 1s
config **.cmdenv-log-level info
config image-path ../../images
config network ComplexNetwork
config debug-on-errors true
config print-undisposed true
config sim-time-limit 400s
config **.scalar-recording true
config **.vector-recording true
config *.playgroundSizeX 2500m
config *.playgroundSizeY 2500m
config *.playgroundSizeZ 50m
config *.annotations.draw true
config *.obstacles.debug false
config *.manager.updateInterval 1s
config *.manager.host "\"localhost\""
config *.manager.port 9999
config *.manager.autoShutdown true
config *.manager.launchConfig "xmldoc(\"ComplexNetwork.launched.xml\")"
config *.manager.trafficLightModuleType "\"org.car2x.veins.nodes.TrafficLight\""
config *.tls[*].mobility.x 0
config *.tls[*].mobility.y 0
config *.tls[*].mobility.z 3
config *.tls[*].applType "\"org.car2x.veins.modules.application.traci.TraCIDemoTrafficLightApp\""
config *.tls[*].logicType "\"org.car2x.veins.modules.world.traci.trafficLight.logics.TraCITrafficLightSimpleLogic\""
config *.rsu[0].mobility.x 2000
config *.rsu[0].mobility.y 2000
config *.rsu[0].mobility.z 3
config *.rsu[*].applType "\"MyVeinsApp\""
config *.rsu[*].appl.headerLength "80 bit"
config *.rsu[*].appl.sendBeacons false
config *.rsu[*].appl.dataOnSch false
config *.rsu[*].appl.beaconInterval 1s
config *.rsu[*].appl.beaconUserPriority 7
config *.rsu[*].appl.dataUserPriority 5
config *.rsu[*].nic.phy80211p.antennaOffsetZ "0 m"
config *.connectionManager.sendDirect true
config *.connectionManager.maxInterfDist 2600m
config *.connectionManager.drawMaxIntfDist false
config *.**.nic.mac1609_4.useServiceChannel false
config *.**.nic.mac1609_4.txPower 20mW
config *.**.nic.mac1609_4.bitrate 6Mbps
config *.**.nic.phy80211p.minPowerLevel -110dBm
config *.**.nic.phy80211p.useNoiseFloor true
config *.**.nic.phy80211p.noiseFloor -98dBm
config *.**.nic.phy80211p.decider "xmldoc(\"config.xml\")"
config *.**.nic.phy80211p.analogueModels "xmldoc(\"config.xml\")"
config *.**.nic.phy80211p.usePropagationDelay true
config *.**.nic.phy80211p.antenna "xmldoc(\"antenna.xml\", \"/root/Antenna[@id='monopole']\")"
config *.node[*].nic.phy80211p.antennaOffsetY "0 m"
config *.node[*].nic.phy80211p.antennaOffsetZ "1.895 m"
config *.node[*].applType "\"TraCIDemo11p\""
config *.node[*].appl.headerLength "80 bit"
config *.node[*].appl.sendBeacons false
config *.node[*].appl.dataOnSch false
config *.node[*].appl.beaconInterval 1s
config *.node[*].veinsmobility.x 0
config *.node[*].veinsmobility.y 0
config *.node[*].veinsmobility.z 0
config *.node[*].veinsmobility.setHostSpeed false
config *.node[*0].veinsmobility.accidentCount 0
config *.node[*0].veinsmobility.accidentStart 73s
config *.node[*0].veinsmobility.accidentDuration 50s

vector 0 ComplexNetwork.rsu[0].nic.phy80211p RadioState ETV
vector 1 ComplexNetwork.rsu[0].nic.phy80211p RadioChannel ETV
vector 2 ComplexNetwork.node[0].nic.phy80211p RadioState ETV
vector 3 ComplexNetwork.node[0].nic.phy80211p RadioChannel ETV
vector 4 ComplexNetwork.manager posx ETV
vector 5 ComplexNetwork.manager posy ETV
vector 6 ComplexNetwork.manager speed ETV
vector 7 ComplexNetwork.manager acceleration ETV
vector 8 ComplexNetwork.manager co2emission ETV
vector 9 ComplexNetwork.node[1].nic.phy80211p RadioState ETV
vector 10 ComplexNetwork.node[1].nic.phy80211p RadioChannel ETV
vector 11 ComplexNetwork.manager posx ETV
vector 12 ComplexNetwork.manager posy ETV
vector 13 ComplexNetwork.manager speed ETV
vector 14 ComplexNetwork.manager acceleration ETV
vector 15 ComplexNetwork.manager co2emission ETV
vector 16 ComplexNetwork.node[2].nic.phy80211p RadioState ETV
vector 17 ComplexNetwork.node[2].nic.phy80211p RadioChannel ETV
vector 18 ComplexNetwork.manager posx ETV
vector 19 ComplexNetwork.manager posy ETV
vector 20 ComplexNetwork.manager speed ETV
vector 21 ComplexNetwork.manager acceleration ETV
vector 22 ComplexNetwork.manager co2emission ETV
vector 23 ComplexNetwork.node[3].nic.phy80211p RadioState ETV
vector 24 ComplexNetwork.node[3].nic.phy80211p RadioChannel ETV
vector 25 ComplexNetwork.manager posx ETV
vector 26 ComplexNetwork.manager posy ETV
vector 27 ComplexNetwork.manager speed ETV
vector 28 ComplexNetwork.manager acceleration ETV
vector 29 ComplexNetwork.manager co2emission ETV
vector 30 ComplexNetwork.node[4].nic.phy80211p RadioState ETV
vector 31 ComplexNetwork.node[4].nic.phy80211p RadioChannel ETV
vector 32 ComplexNetwork.manager posx ETV
vector 33 ComplexNetwork.manager posy ETV
vector 34 ComplexNetwork.manager speed ETV
vector 35 ComplexNetwork.manager acceleration ETV
vector 36 ComplexNetwork.manager co2emission ETV
vector 37 ComplexNetwork.node[5].nic.phy80211p RadioState ETV
vector 38 ComplexNetwork.node[5].nic.phy80211p RadioChannel ETV
vector 39 ComplexNetwork.manager posx ETV
vector 40 ComplexNetwork.manager posy ETV
vector 41 ComplexNetwork.manager speed ETV
vector 42 ComplexNetwork.manager acceleration ETV
vector 43 ComplexNetwork.manager co2emission ETV
vector 44 ComplexNetwork.node[6].nic.phy80211p RadioState ETV
vector 45 ComplexNetwork.node[6].nic.phy80211p RadioChannel ETV
vector 46 ComplexNetwork.manager posx ETV
vector 47 ComplexNetwork.manager posy ETV
vector 48 ComplexNetwork.manager speed ETV
vector 49 ComplexNetwork.manager acceleration ETV
vector 50 ComplexNetwork.manager co2emission ETV
vector 51 ComplexNetwork.node[7].nic.phy80211p RadioState ETV
vector 52 ComplexNetwork.node[7].nic.phy80211p RadioChannel ETV
vector 53 ComplexNetwork.manager posx ETV
vector 54 ComplexNetwork.manager posy ETV
vector 55 ComplexNetwork.manager speed ETV
vector 56 ComplexNetwork.manager acceleration ETV
vector 57 ComplexNetwork.manager co2emission ETV
vector 58 ComplexNetwork.node[8].nic.phy80211p RadioState ETV
vector 59 ComplexNetwork.node[8].nic.phy80211p RadioChannel ETV
vector 60 ComplexNetwork.manager posx ETV
vector 61 ComplexNetwork.manager posy ETV
vector 62 ComplexNetwork.manager speed ETV
vector 63 ComplexNetwork.manager acceleration ETV
vector 64 ComplexNetwork.manager co2emission ETV
vector 65 ComplexNetwork.node[9].nic.phy80211p RadioState ETV
vector 66 ComplexNetwork.node[9].nic.phy80211p RadioChannel ETV
vector 67 ComplexNetwork.manager posx ETV
vector 68 ComplexNetwork.manager posy ETV
vector 69 ComplexNetwork.manager speed ETV
vector 70 ComplexNetwork.manager acceleration ETV
vector 71 ComplexNetwork.manager co2emission ETV
vector 72 ComplexNetwork.node[10].nic.phy80211p RadioState ETV
vector 73 ComplexNetwork.node[10].nic.phy80211p RadioChannel ETV
vector 74 ComplexNetwork.manager posx ETV
vector 75 ComplexNetwork.manager posy ETV
vector 76 ComplexNetwork.manager speed ETV
vector 77 ComplexNetwork.manager acceleration ETV
vector 78 ComplexNetwork.manager co2emission ETV
vector 79 ComplexNetwork.node[11].nic.phy80211p RadioState ETV
vector 80 ComplexNetwork.node[11].nic.phy80211p RadioChannel ETV
vector 81 ComplexNetwork.manager posx ETV
vector 82 ComplexNetwork.manager posy ETV
vector 83 ComplexNetwork.manager speed ETV
vector 84 ComplexNetwork.manager acceleration ETV
vector 85 ComplexNetwork.manager co2emission ETV
vector 86 ComplexNetwork.node[12].nic.phy80211p RadioState ETV
vector 87 ComplexNetwork.node[12].nic.phy80211p RadioChannel ETV
vector 88 ComplexNetwork.manager posx ETV
vector 89 ComplexNetwork.manager posy ETV
vector 90 ComplexNetwork.manager speed ETV
vector 91 ComplexNetwork.manager acceleration ETV
vector 92 ComplexNetwork.manager co2emission ETV
vector 93 ComplexNetwork.node[13].nic.phy80211p RadioState ETV
vector 94 ComplexNetwork.node[13].nic.phy80211p RadioChannel ETV
vector 95 ComplexNetwork.manager posx ETV
vector 96 ComplexNetwork.manager posy ETV
vector 97 ComplexNetwork.manager speed ETV
vector 98 ComplexNetwork.manager acceleration ETV
vector 99 ComplexNetwork.manager co2emission ETV
vector 100 ComplexNetwork.node[14].nic.phy80211p RadioState ETV
vector 101 ComplexNetwork.node[14].nic.phy80211p RadioChannel ETV
vector 102 ComplexNetwork.manager posx ETV
vector 103 ComplexNetwork.manager posy ETV
vector 104 ComplexNetwork.manager speed ETV
vector 105 ComplexNetwork.manager acceleration ETV
vector 106 ComplexNetwork.manager co2emission ETV
vector 107 ComplexNetwork.node[15].nic.phy80211p RadioState ETV
vector 108 ComplexNetwork.node[15].nic.phy80211p RadioChannel ETV
vector 109 ComplexNetwork.manager posx ETV
vector 110 ComplexNetwork.manager posy ETV
vector 111 ComplexNetwork.manager speed ETV
vector 112 ComplexNetwork.manager acceleration ETV
vector 113 ComplexNetwork.manager co2emission ETV
vector 114 ComplexNetwork.node[16].nic.phy80211p RadioState ETV
vector 115 ComplexNetwork.node[16].nic.phy80211p RadioChannel ETV
vector 116 ComplexNetwork.manager posx ETV
vector 117 ComplexNetwork.manager posy ETV
vector 118 ComplexNetwork.manager speed ETV
vector 119 ComplexNetwork.manager acceleration ETV
vector 120 ComplexNetwork.manager co2emission ETV
vector 121 ComplexNetwork.node[17].nic.phy80211p RadioState ETV
vector 122 ComplexNetwork.node[17].nic.phy80211p RadioChannel ETV
vector 123 ComplexNetwork.manager posx ETV
vector 124 ComplexNetwork.manager posy ETV
vector 125 ComplexNetwork.manager speed ETV
vector 126 ComplexNetwork.manager acceleration ETV
vector 127 ComplexNetwork.manager co2emission ETV
vector 128 ComplexNetwork.node[18].nic.phy80211p RadioState ETV
vector 129 ComplexNetwork.node[18].nic.phy80211p RadioChannel ETV
vector 130 ComplexNetwork.manager posx ETV
vector 131 ComplexNetwork.manager posy ETV
vector 132 ComplexNetwork.manager speed ETV
vector 133 ComplexNetwork.manager acceleration ETV
vector 134 ComplexNetwork.manager co2emission ETV
vector 135 ComplexNetwork.node[19].nic.phy80211p RadioState ETV
vector 136 ComplexNetwork.node[19].nic.phy80211p RadioChannel ETV
vector 137 ComplexNetwork.manager posx ETV
vector 138 ComplexNetwork.manager posy ETV
vector 139 ComplexNetwork.manager speed ETV
vector 140 ComplexNetwork.manager acceleration ETV
vector 141 ComplexNetwork.manager co2emission ETV
vector 142 ComplexNetwork.node[20].nic.phy80211p RadioState ETV
vector 143 ComplexNetwork.node[20].nic.phy80211p RadioChannel ETV
vector 144 ComplexNetwork.manager posx ETV
vector 145 ComplexNetwork.manager posy ETV
vector 146 ComplexNetwork.manager speed ETV
vector 147 ComplexNetwork.manager acceleration ETV
vector 148 ComplexNetwork.manager co2emission ETV
8	4	3	3.6860301118415
8	5	4	4.406775890087
8	6	5	7.0480482036309
8	7	6	6.6601703498328
8	8	7	8.8385675650777
8	9	8	10.709303828799
8	10	9	0.973
8	11	10	4.819554965787
8	12	11	0.973
8	13	12	4.9010589442512
8	14	13	2.7154732233804
8	15	14	0.973
8	16	15	0.973
8	17	16	5.2938773527775
8	18	17	0.973
8	19	18	6.2596856720996
8	20	19	0.973
8	21	20	4.8498176417035
8	22	21	0.973
8	23	22	3.4550461435705
8	24	23	0.973
8	25	24	0.973
8	26	25	0.973
8	27	26	4.781252903893
8	28	27	4.7406196611284
8	29	28	6.4471666058208
8	30	29	6.6312447480621
8	31	30	8.7862418881702
8	32	31	4.4158549524809
8	33	32	5.3020328745111
8	34	33	2.9096997899688
8	35	34	0.973
8	36	35	6.2231411166728
8	37	36	1.422262419793
8	38	37	0.973
8	39	38	3.811813811748
8	40	39	3.7824340634152
8	41	40	0.973
8	42	41	0.973
8	43	42	4.0078621247136
8	44	43	2.1752436546823
8	45	44	2.8263435286457
8	46	45	0.973
8	47	46	0.973
8	48	47	0.973
8	49	48	0.973
8	50	49	3.6480581884212
8	51	50	6.4241463019904
8	52	51	6.0401374919091
8	53	52	6.4858889587331
8	54	53	6.1993177832104
8	55	54	7.1385458037689
8	56	55	5.4524067633531
8	57	56	0.973
8	58	57	5.7838255727738
8	59	58	0.973
8	60	59	6.0479136951088
8	61	60	0.973
8	62	61	1.8474477192515
8	63	62	3.7571706671681
8	64	63	0.973
8	65	64	3.3489249023615
8	66	65	2.6622723431609
8	67	66	0.973
8	68	67	2.2473532503879
8	69	68	1.8320807905828
8	70	69	0.973
8	71	70	0.973
8	72	71	0.973
8	73	72	1.7311510389252
8	74	73	4.2134013917947
8	75	74	7.0363542420046
8	76	75	5.576510044239
8	77	76	6.2414849640202
8	78	77	6.9110122371941
8	79	78	8.2006600993853
8	80	79	3.3614529938056
8	81	80	0.973
8	82	81	1.9897139341088
8	83	82	3.0196859735575
8	84	83	4.9634264010066
8	85	84	0.973
8	86	85	2.4800415256822
8	87	86	0.973
8	88	87	0.973
8	89	88	1.6193966287884
8	90	89	0.973
8	91	90	6.0031345870815
8	92	91	5.7356316799492
8	93	92	7.3954138466701
8	94	93	9.6331356317792
8	95	94	3.2298333566409
8	96	95	0.973
8	97	96	0.973
8	98	97	7.1353903247243
8	99	98	8.5456239686912
8	100	99	8.7601625014099
8	101	100	6.3978173921051
8	102	101	0.973
8	103	102	1.6216167934928
8	104	103	2.9147036181639
7	4	3	2.1753469938878
7	5	4	1.9198876491515
7	6	5	2.5276067882543
7	7	6	1.884088109131
7	8	7	2.1987981781596
7	9	8	2.3090047334715
7	10	9	-0.73485042962711
7	11	10	0.71572653548792
7	12	11	-0.93538137988653
7	13	12	0.75239371815696
7	14	13	0.14675340293907
7	15	14	-0.45345167531632
7	16	15	-0.40774121608119
7	17	16	0.84852697364986
7	18	17	-0.90654725597706
7	19	18	1.092181937024
7	20	19	-0.88437552358955
7	21	20	0.72564783934504
7	22	21	-0.50754145747051
7	23	22	0.35516011796426
7	24	23	-3.7758562395211
7	25	24	-4.3886070182547
7	26	25	-3.1291108355583
7	27	26	2.2769368349575
7	28	27	1.7034126528772
7	29	28	2.0150319518521
7	30	29	1.7299345174339
7	31	30	2.0657769595738
7	32	31	0.68003385230498
7	33	32	0.85850908346474
7	34	33	0.19546499843709
7	35	34	-0.98823676586617
7	36	35	1.0810311885318
7	37	36	-0.20436282765586
7	38	37	-0.75963758639991
7	39	38	0.46374235481489
7	40	39	0.42987335824873
7	41	40	-0.42290495529305
7	42	41	-0.57313621402718
7	43	42	0.52108462280594
7	44	43	0.010737839015201
7	45	44	0.18387910590973
7	46	45	-0.47862597291823
7	47	46	-2.7075608846128
7	48	47	-4.2180726029444
7	49	48	-3.7073749797842
7	50	49	1.652940650261
7	51	50	2.4860693038907
7	52	51	1.8179015217815
7	53	52	1.6681086091325
7	54	53	1.3621651400579
7	55	54	1.453117227094
7	56	55	0.88606099262834
7	57	56	-0.93583106496371
7	58	57	0.97238561380655
7	59	58	-1.0782746542012
7	60	59	1.0468517293222
7	61	60	-0.42233376756776
7	62	61	-0.077983629028312
7	63	62	0.43067771538626
7	64	63	-0.73258755218703
7	65	64	0.34023894818965
7	66	65	0.14277709580492
7	67	66	-0.66590770264156
7	68	67	0.048492551548406
7	69	68	-0.069494873424992
7	70	69	-2.192181454837
7	71	70	-4.4379896501079
7	72	71	-3.8575067980448
7	73	72	0.40191520461813
7	74	73	1.8890440943418
7	75	74	2.5926332155941
7	76	75	1.5627312774537
7	77	76	1.5470325991511
7	78	77	1.5334775536321
7	79	78	1.6710025337345
7	80	79	0.31829167620745
7	81	80	-0.91858300399035
7	82	81	-0.026215177238919
7	83	82	0.2579764844384
7	84	83	0.74667251806241
7	85	84	-0.55827539043967
7	86	85	0.094676253735088
7	87	86	-4.3180627837156
7	88	87	-3.6757314940682
7	89	88	0.08152112455573
7	90	89	-0.86365183484741
7	91	90	2.1996845621383
7	92	91	1.6729553929064
7	93	92	1.9247910779435
7	94	93	2.2166085604578
7	95	94	0.32551157493913
7	96	95	-3.2953540039268
7	97	96	-4.4352743801195
7	98	97	2.4708577161422
7	99	98	2.3974915228086
7	100	99	2.0465621652314
7	101	100	1.1894619769901
7	102	101	-0.43391689844429
7	103	102	-0.13043773721438
7	104	103	0.23338011342566
6	3	2	2.3097215975402
6	4	3	4.485068591428
6	5	4	6.4049562405795
6	6	5	8.9325630288338
6	7	6	10.816651137965
6	8	7	13.015449316124
6	9	8	15.324454049596
6	10	9	14.589603619969
6	11	10	15.305330155457
6	12	11	14.36994877557
6	13	12	15.122342493727
6	14	13	15.269095896666
6	15	14	14.81564422135
6	16	15	14.407903005269
6	17	16	15.256429978919
6	18	17	14.349882722942
6	19	18	15.442064659966
6	20	19	14.557689136376
6	21	20	15.283336975721
6	22	21	14.775795518251
6	23	22	15.130955636215
6	24	23	11.355099396694
6	25	24	6.966492378439
6	26	25	3.8373815428807
6	27	26	6.1143183778382
6	28	27	7.8177310307153
6	29	28	9.8327629825675
6	30	29	11.562697500001
6	31	30	13.628474459575
6	32	31	14.30850831188
6	33	32	15.167017395345
6	34	33	15.362482393782
6	35	34	14.374245627916
6	36	35	15.455276816448
6	37	36	15.250913988792
6	38	37	14.491276402392
6	39	38	14.955018757207
6	40	39	15.384892115455
6	41	40	14.961987160162
6	42	41	14.388850946135
6	43	42	14.909935568941
6	44	43	14.920673407956
6	45	44	15.104552513866
6	46	45	14.625926540948
6	47	46	11.918365656335
6	48	47	7.7002930533906
6	49	48	3.9929180736064
6	50	49	5.6458587238674
6	51	50	8.1319280277581
6	52	51	9.9498295495395
6	53	52	11.617938158672
6	54	53	12.98010329873
6	55	54	14.433220525824
6	56	55	15.319281518452
6	57	56	14.383450453488
6	58	57	15.355836067295
6	59	58	14.277561413094
6	60	59	15.324413142416
6	61	60	14.902079374848
6	62	61	14.82409574582
6	63	62	15.254773461206
6	64	63	14.522185909019
6	65	64	14.862424857209
6	66	65	15.005201953014
6	67	66	14.339294250372
6	68	67	14.387786801921
6	69	68	14.318291928496
6	70	69	12.126110473659
6	71	70	7.6881208235507
6	72	71	3.8306140255059
6	73	72	4.232529230124
6	74	73	6.1215733244658
6	75	74	8.7142065400599
6	76	75	10.276937817514
6	77	76	11.823970416665
6	78	77	13.357447970297
6	79	78	15.028450504031
6	80	79	15.346742180239
6	81	80	14.428159176248
6	82	81	14.40194399901
6	83	82	14.659920483448
6	84	83	15.40659300151
6	85	84	14.848317611071
6	86	85	14.942993864806
6	87	86	10.62493108109
6	88	87	6.9491995870221
6	89	88	7.0307207115778
6	90	89	6.1670688767304
6	91	90	8.3667534388687
6	92	91	10.039708831775
6	93	92	11.964499909719
6	94	93	14.181108470176
6	95	94	14.506620045116
6	96	95	11.211266041189
6	97	96	6.7759916610693
6	98	97	9.2468493772115
6	99	98	11.64434090002
6	100	99	13.690903065251
6	101	100	14.880365042242
6	102	101	14.446448143797
6	103	102	14.316010406583
6	104	103	14.549390520009
5	2	1	26.6
5	3	2	26.6
5	4	3	26.6
5	5	4	26.6
5	6	5	26.6
5	7	6	26.6
5	8	7	26.6
5	9	8	26.6
5	10	9	26.6
5	11	10	26.6
5	12	11	26.6
5	13	12	26.6
5	14	13	26.6
5	15	14	26.6
5	16	15	26.6
5	17	16	26.6
5	18	17	26.6
5	19	18	26.6
5	20	19	26.6
5	21	20	26.6
5	22	21	26.6
5	23	22	26.6
5	24	23	26.6
5	25	24	26.6
5	26	25	29.243860076476
5	27	26	35.358178454315
5	28	27	43.17590948503
5	29	28	53.008672467598
5	30	29	64.571369967599
5	31	30	78.199844427174
5	32	31	92.508352739054
5	33	32	107.6753701344
5	34	33	123.03785252818
5	35	34	137.4120981561
5	36	35	152.86737497254
5	37	36	168.11828896134
5	38	37	182.60956536373
5	39	38	197.56458412093
5	40	39	212.94947623639
5	41	40	227.91146339655
5	42	41	242.30031434269
5	43	42	257.21024991163
5	44	43	272.13092331959
5	45	44	287.23547583345
5	46	45	301.8614023744
5	47	46	313.77976803073
5	48	47	321.48006108413
5	49	48	323.4
5	50	49	323.4
5	51	50	323.4
5	52	51	323.4
5	53	52	323.4
5	54	53	323.4
5	55	54	323.4
5	56	55	323.4
5	57	56	323.4
5	58	57	323.4
5	59	58	323.4
5	60	59	323.4
5	61	60	323.4
5	62	61	323.4
5	63	62	323.4
5	64	63	323.4
5	65	64	323.4
5	66	65	323.4
5	67	66	323.4
5	68	67	323.4
5	69	68	323.4
5	70	69	323.4
5	71	70	323.4
5	72	71	323.16292533518
5	73	72	319.17409112839
5	74	73	313.05251780392
5	75	74	304.33831126386
5	76	75	294.06137344635
5	77	76	282.23740302968
5	78	77	268.87995505939
5	79	78	253.85150455536
5	80	79	238.50476237512
5	81	80	224.07660319887
5	82	81	209.67465919986
5	83	82	195.01473871641
5	84	83	179.6081457149
5	85	84	164.75982810383
5	86	85	149.81683423902
5	87	86	139.19190315793
5	88	87	132.24270357091
5	89	88	126.88882519863
5	90	89	126.6
5	91	90	126.6
5	92	91	126.6
5	93	92	126.6
5	94	93	126.6
5	95	94	126.6
5	96	95	126.6
5	97	96	126.6
5	98	97	126.6
5	99	98	126.6
5	100	99	126.6
5	101	100	126.6
5	102	101	126.6
5	103	102	126.6
5	104	103	126.6
4	2	1	33.3
4	3	2	35.60972159754
4	4	3	40.094790188968
4	5	4	46.499746429548
4	6	5	55.432309458381
4	7	6	66.248960596346
4	8	7	79.264409912471
4	9	8	94.588863962067
4	10	9	109.17846758204
4	11	10	124.48379773749
4	12	11	138.85374651306
4	13	12	153.97608900679
4	14	13	169.24518490346
4	15	14	184.06082912481
4	16	15	198.46873213007
4	17	16	213.72516210899
4	18	17	228.07504483194
4	19	18	243.5171094919
4	20	19	258.07479862828
4	21	20	273.358135604
4	22	21	288.13393112225
4	23	22	303.26488675846
4	24	23	314.61998615516
4	25	24	321.5864785336
4	26	25	323.4
4	27	26	323.4
4	28	27	323.4
4	29	28	323.4
4	30	29	323.4
4	31	30	323.4
4	32	31	323.4
4	33	32	323.4
4	34	33	323.4
4	35	34	323.4
4	36	35	323.4
4	37	36	323.4
4	38	37	323.4
4	39	38	323.4
4	40	39	323.4
4	41	40	323.4
4	42	41	323.4
4	43	42	323.4
4	44	43	323.4
4	45	44	323.4
4	46	45	323.4
4	47	46	323.4
4	48	47	323.4
4	49	48	320.70702084227
4	50	49	315.0611621184
4	51	50	306.92923409064
4	52	51	296.9794045411
4	53	52	285.36146638243
4	54	53	272.3813630837
4	55	54	257.94814255788
4	56	55	242.62886103943
4	57	56	228.24541058594
4	58	57	212.88957451864
4	59	58	198.61201310555
4	60	59	183.28759996313
4	61	60	168.38552058828
4	62	61	153.56142484246
4	63	62	138.30665138126
4	64	63	123.78446547224
4	65	64	108.92204061503
4	66	65	93.916838662016
4	67	66	79.577544411644
4	68	67	65.189757609723
4	69	68	50.871465681227
4	70	69	38.745355207569
4	71	70	31.057234384018
4	72	71	27.271542225297
4	73	72	26.6
4	74	73	26.6
4	75	74	26.6
4	76	75	26.6
4	77	76	26.6
4	78	77	26.6
4	79	78	26.6
4	80	79	26.6
4	81	80	26.6
4	82	81	26.6
4	83	82	26.6
4	84	83	26.6
4	85	84	26.6
4	86	85	26.6
4	87	86	26.6
4	88	87	26.6
4	89	88	30.178223609615
4	90	89	36.325086017396
4	91	90	44.691839456265
4	92	91	54.73154828804
4	93	92	66.696048197759
4	94	93	80.877156667935
4	95	94	95.383776713051
4	96	95	106.59504275424
4	97	96	113.37103441531
4	98	97	122.61788379252
4	99	98	134.26222469254
4	100	99	147.95312775779
4	101	100	162.83349280003
4	102	101	177.27994094383
4	103	102	191.59595135041
4	104	103	206.14534187042
15	9	8	3.7441301504186
15	10	9	5.3650487650268
15	11	10	5.1581538630958
15	12	11	6.120114085948
15	13	12	9.3008715737291
15	14	13	7.8327640887679
15	15	14	0.973
15	16	15	3.6563580711634
15	17	16	4.6147202883165
15	18	17	1.8308352204317
15	19	18	0.973
15	20	19	2.0765432260004
15	21	20	3.6977995251283
15	22	21	0.973
15	23	22	4.5848251224324
15	24	23	0.973
15	25	24	3.8110732324652
15	26	25	0.973
15	27	26	4.128048036446
15	28	27	1.1697186695294
15	29	28	4.3240860597392
15	30	29	0.973
15	31	30	0.973
15	32	31	0.973
15	33	32	1.7251821759435
15	34	33	3.0851484880584
15	35	34	3.9964731419788
15	36	35	6.6448044305604
15	37	36	6.3743009657897
15	38	37	10.181748679049
15	39	38	2.6687773351874
15	40	39	1.5421124333218
15	41	40	3.1752052173502
15	42	41	2.8777094187875
15	43	42	1.1078352564271
15	44	43	2.2843294398097
15	45	44	2.8476840155829
15	46	45	4.0728520625002
15	47	46	1.6874747182932
15	48	47	0.973
15	49	48	2.7400453631867
15	50	49	5.2727882953241
15	51	50	2.2373439004824
15	52	51	0.973
15	53	52	2.5225471525298
15	54	53	4.7236153051127
15	55	54	0.973
15	56	55	0.973
15	57	56	0.973
15	58	57	1.5677427929246
15	59	58	3.3478649496575
15	60	59	6.1639072957874
15	61	60	6.7430735367532
15	62	61	5.5997010059542
15	63	62	9.7526814210032
15	64	63	2.9926023203237
15	65	64	3.0838541775948
15	66	65	0.973
15	67	66	2.6097441560404
15	68	67	1.6512766949218
15	69	68	3.2629692250176
15	70	69	0.973
15	71	70	0.973
15	72	71	2.7508679154191
15	73	72	4.8879205318676
15	74	73	1.9184609101143
15	75	74	1.9638331015898
15	76	75	0.973
15	77	76	0.973
15	78	77	3.309362392908
15	79	78	2.3797856148989
15	80	79	0.973
15	81	80	0.973
15	82	81	0.973
15	83	82	3.9123096050728
15	84	83	4.8153362768613
15	85	84	6.0149623288844
15	86	85	7.5497502797228
15	87	86	8.4996558180561
15	88	87	4.6159924981599
15	89	88	0.973
15	90	89	0.973
15	91	90	2.4524588715977
15	92	91	4.252302159523
15	93	92	0.973
15	94	93	2.2206827979797
15	95	94	4.9734083808519
15	96	95	0.973
15	97	96	0.973
15	98	97	0.973
15	99	98	0.973
15	100	99	2.0889610570219
15	101	100	4.3114995101775
15	102	101	7.8182838975256
15	103	102	9.099228879719
15	104	103	7.5780157291756
15	105	104	1.86754590388
15	106	105	0.973
15	107	106	0.973
15	108	107	4.7281023731771
15	109	108	6.6499157908357
15	110	109	6.0685083471386
15	111	110	9.1359385114361
15	112	111	2.1975082715733
15	113	112	2.4552324456598
15	114	113	0.973
15	115	114	2.569865291701
14	9	8	2.1310525114881
14	10	9	2.3099947745679
14	11	10	1.7046559911221
14	12	11	1.7500303386245
14	13	12	2.3871491486207
14	14	13	1.6472534477072
14	15	14	-1.1318917948287
14	16	15	0.49052832478192
14	17	16	0.71833702346776
14	18	17	-0.073821693193167
14	19	18	-0.96059726236854
14	20	19	0.025786624359899
14	21	20	0.4897908719955
14	22	21	-0.31994334983174
14	23	22	0.71934156699572
14	24	23	-0.90516141969711
14	25	24	0.52218335485086
14	26	25	-0.49883059237618
14	27	26	0.60778497075662
14	28	27	-0.25637518370058
14	29	28	0.63643638743088
14	30	29	-3.1333473127059
14	31	30	-4.5
14	32	31	-4.0273571859001
14	33	32	0.54255574459676
14	34	33	1.4684856106061
14	35	34	1.6237992578885
14	36	35	2.3594480948756
14	37	36	1.8031567084137
14	38	37	2.5744401467033
14	39	38	0.21107290802355
14	40	39	-0.13362711460795
14	41	40	0.35464159017429
14	42	41	0.25202148021199
14	43	42	-0.2723212037934
14	44	43	0.082125280471519
14	45	44	0.24066877767909
14	46	45	0.56403360827826
14	47	46	-0.1139339807909
14	48	47	-1.085014008428
14	49	48	0.2275443459861
14	50	49	0.91190828250255
14	51	50	0.040990146598778
14	52	51	-1.0258419388207
14	53	52	0.15749642171431
14	54	53	0.76015820933972
14	55	54	-2.0005766517792
14	56	55	-4.5
14	57	56	-4.5
14	58	57	0.30485439160839
14	59	58	1.5504331293283
14	60	59	2.4814004011219
14	61	60	2.1278210264863
14	62	61	1.4020640265662
14	63	62	2.3574761475436
14	64	63	0.28636536401062
14	65	64	0.29801617639605
14	66	65	-0.48179442544934
14	67	66	0.17277135732584
14	68	67	-0.11054366151802
14	69	68	0.35388939930126
14	70	69	-0.40353552151937
14	71	70	-0.30952287092805
14	72	71	0.22614111166913
14	73	72	0.80246980676893
14	74	73	-0.047447406547144
14	75	74	-0.033458132599481
14	76	75	-0.65579736705404
14	77	76	-0.35365637154318
14	78	77	0.38963102607522
14	79	78	0.10558064868674
14	80	79	-1.0515118819505
14	81	80	-4.448445317056
14	82	81	-4.4699367934605
14	83	82	1.8173973921686
14	84	83	1.8161164063029
14	85	84	1.9168310374254
14	86	85	2.0669206749881
14	87	86	1.9969190652715
14	88	87	0.74157023509795
14	89	88	-0.31657126762438
14	90	89	-0.28662586740684
14	91	90	0.13074384126812
14	92	91	0.62447927745525
14	93	92	-1.036605696613
14	94	93	0.072984927520157
14	95	94	0.84273886648007
14	96	95	-0.71001305766404
14	97	96	-2.276973568991
14	98	97	-4.5
14	99	98	-0.8481246358715
14	100	99	0.42064416937064
14	101	100	1.4682693119626
14	102	101	2.4589511863887
14	103	102	2.3557021918707
14	104	103	1.6027624967445
14	105	104	-0.056410788348876
14	106	105	-3.5825037936028
14	107	106	-3.6810195609811
14	108	107	1.5406996498117
14	109	108	1.9582808221225
14	110	109	1.471595842368
14	111	110	2.1000355886295
14	112	111	0.044873258161767
14	113	112	0.11639375751838
14	114	113	-0.89129236685112
14	115	114	0.18003349683713
13	8	7	2.5407174649648
13	9	8	4.6717699764529
13	10	9	6.9817647510208
13	11	10	8.6864207421429
13	12	11	10.436451080767
13	13	12	12.823600229388
13	14	13	14.470853677095
13	15	14	13.338961882267
13	16	15	13.829490207049
13	17	16	14.547827230516
13	18	17	14.474005537323
13	19	18	13.513408274955
13	20	19	13.539194899314
13	21	20	14.02898577131
13	22	21	13.709042421478
13	23	22	14.428383988474
13	24	23	13.523222568777
13	25	24	14.045405923628
13	26	25	13.546575331252
13	27	26	14.154360302008
13	28	27	13.897985118308
13	29	28	14.534421505738
13	30	29	11.401074193033
13	31	30	6.9010741930325
13	32	31	2.8737170071325
13	33	32	3.4162727517292
13	34	33	4.8847583623354
13	35	34	6.5085576202238
13	36	35	8.8680057150994
13	37	36	10.671162423513
13	38	37	13.245602570216
13	39	38	13.45667547824
13	40	39	13.323048363632
13	41	40	13.677689953806
13	42	41	13.929711434018
13	43	42	13.657390230225
13	44	43	13.739515510696
13	45	44	13.980184288375
13	46	45	14.544217896654
13	47	46	14.430283915863
13	48	47	13.345269907435
13	49	48	13.572814253421
13	50	49	14.484722535924
13	51	50	14.525712682522
13	52	51	13.499870743702
13	53	52	13.657367165416
13	54	53	14.417525374756
13	55	54	12.416948722976
13	56	55	7.9169487229765
13	57	56	3.4169487229765
13	58	57	3.7218031145849
13	59	58	5.2722362439132
13	60	59	7.7536366450351
13	61	60	9.8814576715215
13	62	61	11.283521698088
13	63	62	13.640997845631
13	64	63	13.927363209642
13	65	64	14.225379386038
13	66	65	13.743584960589
13	67	66	13.916356317914
13	68	67	13.805812656396
13	69	68	14.159702055698
13	70	69	13.756166534178
13	71	70	13.44664366325
13	72	71	13.672784774919
13	73	72	14.475254581688
13	74	73	14.427807175141
13	75	74	14.394349042542
13	76	75	13.738551675488
13	77	76	13.384895303945
13	78	77	13.77452633002
13	79	78	13.880106978706
13	80	79	12.828595096756
13	81	80	8.3801497797
13	82	81	3.9102129862395
13	83	82	5.7276103784081
13	84	83	7.543726784711
13	85	84	9.4605578221364
13	86	85	11.527478497125
13	87	86	13.524397562396
13	88	87	14.265967797494
13	89	88	13.94939652987
13	90	89	13.662770662463
13	91	90	13.793514503731
13	92	91	14.417993781186
13	93	92	13.381388084573
13	94	93	13.454373012093
13	95	94	14.297111878573
13	96	95	13.587098820909
13	97	96	11.310125251918
13	98	97	6.8101252519183
13	99	98	5.9620006160468
13	100	99	6.3826447854174
13	101	100	7.8509140973801
13	102	101	10.309865283769
13	103	102	12.665567475639
13	104	103	14.268329972384
13	105	104	14.211919184035
13	106	105	10.629415390432
13	107	106	6.9483958294513
13	108	107	8.489095479263
13	109	108	10.447376301385
13	110	109	11.918972143753
13	111	110	14.019007732383
13	112	111	14.063880990545
13	113	112	14.180274748063
13	114	113	13.288982381212
13	115	114	13.469015878049
12	7	6	26.6
12	8	7	26.6
12	9	8	26.6
12	10	9	26.6
12	11	10	26.6
12	12	11	26.6
12	13	12	26.6
12	14	13	26.6
12	15	14	26.6
12	16	15	26.6
12	17	16	26.6
12	18	17	26.6
12	19	18	26.6
12	20	19	26.6
12	21	20	26.6
12	22	21	26.6
12	23	22	26.6
12	24	23	26.6
12	25	24	26.6
12	26	25	26.6
12	27	26	26.6
12	28	27	26.6
12	29	28	26.6
12	30	29	26.6
12	31	30	26.6
12	32	31	28.020508192741
12	33	32	31.434987029155
12	34	33	36.319745391491
12	35	34	42.828303011714
12	36	35	51.696308726814
12	37	36	62.367471150327
12	38	37	75.613073720543
12	39	38	89.069749198783
12	40	39	102.39279756242
12	41	40	116.07048751622
12	42	41	130.00019895024
12	43	42	143.65758918046
12	44	43	157.39710469116
12	45	44	171.37728897954
12	46	45	185.92150687619
12	47	46	200.35179079205
12	48	47	213.69706069949
12	49	48	227.26987495291
12	50	49	241.75459748883
12	51	50	256.28031017135
12	52	51	269.78018091506
12	53	52	283.43754808047
12	54	53	297.85507345523
12	55	54	310.2720221782
12	56	55	318.18897090118
12	57	56	321.60591962416
12	58	57	323.4
12	59	58	323.4
12	60	59	323.4
12	61	60	323.4
12	62	61	323.4
12	63	62	323.4
12	64	63	323.4
12	65	64	323.4
12	66	65	323.4
12	67	66	323.4
12	68	67	323.4
12	69	68	323.4
12	70	69	323.4
12	71	70	323.4
12	72	71	323.4
12	73	72	323.4
12	74	73	323.4
12	75	74	323.4
12	76	75	323.4
12	77	76	323.4
12	78	77	323.4
12	79	78	323.4
12	80	79	323.4
12	81	80	323.4
12	82	81	321.35218464822
12	83	82	315.62457426981
12	84	83	308.0808474851
12	85	84	298.62028966296
12	86	85	287.09281116584
12	87	86	273.56841360344
12	88	87	259.30244580595
12	89	88	245.35304927608
12	90	89	231.69027861362
12	91	90	217.89676410989
12	92	91	203.4787703287
12	93	92	190.09738224413
12	94	93	176.64300923203
12	95	94	162.34589735346
12	96	95	148.75879853255
12	97	96	137.44867328063
12	98	97	130.65399939777
12	99	98	126.81309133606
12	100	99	126.6
12	101	100	126.6
12	102	101	126.6
12	103	102	126.6
12	104	103	126.6
12	105	104	126.6
12	106	105	126.6
12	107	106	126.6
12	108	107	126.6
12	109	108	126.6
12	110	109	126.6
12	111	110	126.6
12	112	111	126.6
12	113	112	126.6
12	114	113	126.6
12	115	114	126.6
11	7	6	33.3
11	8	7	35.840717464965
11	9	8	40.512487441418
11	10	9	47.494252192439
11	11	10	56.180672934582
11	12	11	66.617124015349
11	13	12	79.440724244737
11	14	13	93.911577921832
11	15	14	107.2505398041
11	16	15	121.08003001115
11	17	16	135.62785724166
11	18	17	150.10186277899
11	19	18	163.61527105394
11	20	19	177.15446595326
11	21	20	191.18345172457
11	22	21	204.89249414604
11	23	22	219.32087813452
11	24	23	232.8441007033
11	25	24	246.88950662692
11	26	25	260.43608195817
11	27	26	274.59044226018
11	28	27	288.48842737849
11	29	28	303.02284888423
11	30	29	314.42392307726
11	31	30	321.32499727029
11	32	31	323.37435831325
11	33	32	323.4
11	34	33	323.4
11	35	34	323.4
11	36	35	323.4
11	37	36	323.4
11	38	37	323.4
11	39	38	323.4
11	40	39	323.4
11	41	40	323.4
11	42	41	323.4
11	43	42	323.4
11	44	43	323.4
11	45	44	323.4
11	46	45	323.4
11	47	46	323.4
11	48	47	323.4
11	49	48	323.4
11	50	49	323.4
11	51	50	323.4
11	52	51	323.4
11	53	52	323.4
11	54	53	323.4
11	55	54	323.4
11	56	55	323.4
11	57	56	323.4
11	58	57	320.85227726126
11	59	58	315.58004101734
11	60	59	307.82640437231
11	61	60	297.94494670079
11	62	61	286.6614250027
11	63	62	273.02042715707
11	64	63	259.09306394743
11	65	64	244.86768456139
11	66	65	231.1240996008
11	67	66	217.20774328289
11	68	67	203.40193062649
11	69	68	189.24222857079
11	70	69	175.48606203661
11	71	70	162.03941837336
11	72	71	148.36663359844
11	73	72	133.89137901676
11	74	73	119.46357184161
11	75	74	105.06922279907
11	76	75	91.330671123585
11	77	76	77.94577581964
11	78	77	64.17124948962
11	79	78	50.291142510914
11	80	79	37.462547414158
11	81	80	29.082397634458
11	82	81	26.6
11	83	82	26.6
11	84	83	26.6
11	85	84	26.6
11	86	85	26.6
11	87	86	26.6
11	88	87	26.6
11	89	88	26.6
11	90	89	26.6
11	91	90	26.6
11	92	91	26.6
11	93	92	26.6
11	94	93	26.6
11	95	94	26.6
11	96	95	26.6
11	97	96	26.6
11	98	97	26.82085722889
11	99	98	30.708360647592
11	100	99	37.076097372751
11	101	100	44.927011470131
11	102	101	55.2368767539
11	103	102	67.902444229539
11	104	103	82.170774201923
11	105	104	96.382693385958
11	106	105	107.01210877639
11	107	106	113.96050460584
11	108	107	122.4496000851
11	109	108	132.89697638649
11	110	109	144.81594853024
11	111	110	158.83495626263
11	112	111	172.89883725317
11	113	112	187.07911200123
11	114	113	200.36809438245
11	115	114	213.8371102605
22	14	13	2.3335482875517
22	15	14	3.2750740234789
22	16	15	5.5305151189871
22	17	16	7.4096900289162
22	18	17	6.8115550394276
22	19	18	7.9287240185693
22	20	19	2.3155823846966
22	21	20	3.6500511545368
22	22	21	0.973
22	23	22	0.973
22	24	23	3.3841234908829
22	25	24	3.8773537447838
22	26	25	0.973
22	27	26	1.758496975028
22	28	27	4.7036164748476
22	29	28	0.973
22	30	29	4.5231160149702
22	31	30	0.973
22	32	31	1.5293176339574
22	33	32	2.5052449388272
22	34	33	1.2908246173113
22	35	34	3.7293390565604
22	36	35	0.973
22	37	36	0.973
22	38	37	0.973
22	39	38	0.973
22	40	39	2.9566715868384
22	41	40	5.9215713888088
22	42	41	4.8166187025729
22	43	42	4.947957766121
22	44	43	8.7701286227507
22	45	44	6.7780102891459
22	46	45	3.456413821276
22	47	46	0.973
22	48	47	2.8776550210724
22	49	48	0.973
22	50	49	2.6845178645274
22	51	50	2.4031440611461
22	52	51	2.4151944519008
22	53	52	1.3459826629418
22	54	53	3.0069120685229
22	55	54	0.973
22	56	55	3.9125029585014
22	57	56	2.4525523077633
22	58	57	0.973
22	59	58	1.1869064989856
22	60	59	2.7790854999859
22	61	60	0.973
22	62	61	0.973
22	63	62	0.973
22	64	63	0.973
22	65	64	4.3131443822428
22	66	65	4.2682748750483
22	67	66	7.8101752085531
22	68	67	5.6711454858642
22	69	68	6.1130684932051
22	70	69	3.9053756742813
22	71	70	1.3201340222535
22	72	71	5.8886976599105
22	73	72	0.973
22	74	73	1.9170963040503
22	75	74	1.9220743175222
22	76	75	1.4677343446567
22	77	76	2.4763535153529
22	78	77	3.55161508803
22	79	78	2.7312225545153
22	80	79	0.973
22	81	80	4.3458236154992
22	82	81	1.9005329961853
22	83	82	0.973
22	84	83	5.4188720181829
22	85	84	1.1315505261128
22	86	85	0.973
22	87	86	0.973
22	88	87	0.973
22	89	88	0.973
22	90	89	0.973
22	91	90	3.4518566884584
22	92	91	5.4264034495708
22	93	92	4.464464364476
22	94	93	5.0240973397253
22	95	94	6.0722150191749
22	96	95	8.1582862708464
22	97	96	0.973
22	98	97	5.1595030616865
22	99	98	0.973
22	100	99	4.0205296594669
22	101	100	0.973
22	102	101	0.973
22	103	102	3.7750495931104
22	104	103	3.4026209664855
22	105	104	0.973
22	106	105	0.973
22	107	106	0.973
22	108	107	2.7625032054582
22	109	108	4.6776243292223
22	110	109	5.9012922302576
22	111	110	8.6959587908151
22	112	111	7.7064946573
22	113	112	2.9611136379545
22	114	113	0.973
22	115	114	0.973
22	116	115	0.973
22	117	116	5.0697917419364
22	118	117	5.0586245566064
22	119	118	5.1480223504598
22	120	119	8.7154905870133
22	121	120	6.2294096597531
22	122	121	1.4285383810968
22	123	122	3.4783806717122
22	124	123	0.973
21	14	13	1.5021020626184
21	15	14	1.7088218681514
21	16	15	2.3776709283935
21	17	16	2.4986099615227
21	18	17	1.8273723290768
21	19	18	1.8668848487083
21	20	19	0.10578453281969
21	21	20	0.48735342789441
21	22	21	-0.46661834295373
21	23	22	-0.33481444607023
21	24	23	0.43032569570933
21	25	24	0.54342587012798
21	26	25	-0.46293245924171
21	27	26	-0.070401139231398
21	28	27	0.76790311017539
21	29	28	-1.0671195195755
21	30	29	0.74205874812323
21	31	30	-0.73372417187784
21	32	31	-0.13241672941949
21	33	32	0.17012820807286
21	34	33	-0.20762225696817
21	35	34	0.53099742892664
21	36	35	-0.79173118615318
21	37	36	-4.5
21	38	37	-4.5
21	39	38	-0.61931498949416
21	40	39	1.4562435342232
21	41	40	2.5651967352023
21	42	41	1.5373951629736
21	43	42	1.3454651284497
21	44	43	2.3120842830511
21	45	44	1.4317230562566
21	46	45	0.40799351031892
21	47	46	-0.3534048106987
21	48	47	0.24410394956358
21	49	48	-0.54423430496827
21	50	49	0.20241330920253
21	51	50	0.11313430701848
21	52	51	0.11240000391845
21	53	52	-0.2018297615461
21	54	53	0.28388725474942
21	55	54	-0.80547373222653
21	56	55	0.56790413092822
21	57	56	0.12470024144277
21	58	57	-0.52700281965081
21	59	58	-0.24250904596411
21	60	59	0.24667410454713
21	61	60	-0.94310969473019
21	62	61	-3.5957188285072
21	63	62	-3.4436680809129
21	64	63	-1.67321576306
21	65	64	2.0651866476284
21	66	65	1.5530665513594
21	67	66	2.5576708041597
21	68	67	1.4162962283241
21	69	68	1.3685983118368
21	70	69	0.60179970188793
21	71	70	-0.19985758236144
21	72	71	1.1140117062721
21	73	72	-0.70780138336122
21	74	73	-0.022383109456859
21	75	74	-0.02027037453372
21	76	75	-0.15706161244307
21	77	76	0.15043613030575
21	78	77	0.4521095668897
21	79	78	0.19898101792205
21	80	79	-0.8118601814378
21	81	80	0.68294392435346
21	82	81	-0.040170075232163
21	83	82	-0.74098174001556
21	84	83	0.9806703946786
21	85	84	-0.26825460242107
21	86	85	-1.3818003288077
21	87	86	-3.4963014821056
21	88	87	-4.1978320223978
21	89	88	-1.4767458592356
21	90	89	-0.27536655461881
21	91	90	1.7774733030237
21	92	91	2.2783586577512
21	93	92	1.3966369571164
21	94	93	1.3926841794047
21	95	94	1.5398462095065
21	96	95	1.9117803542875
21	97	96	-0.33126363594755
21	98	97	0.92457506742794
21	99	98	-0.3075260666199
21	100	99	0.56848109106068
21	101	100	-0.51271472866647
21	102	101	-0.72930516339838
21	103	102	0.54438055562787
21	104	103	0.40582457773853
21	105	104	-1.9942004918479
21	106	105	-2.3277598693501
21	107	106	-4.2180969210482
21	108	107	0.87216752562672
21	109	108	1.6391417283332
21	110	109	1.8031093417434
21	111	110	2.3465624085627
21	112	111	1.7097544313908
21	113	112	0.26971197496168
21	114	113	-2.0084705643027
21	115	114	-3.9634890149464
21	116	115	-3.6265685347811
21	117	116	2.2324047110509
21	118	117	1.717495745467
21	119	118	1.4578853386687
21	120	119	2.327370282216
21	121	120	1.3020042837355
21	122	121	-0.1693393672118
21	123	122	0.44005585210398
21	124	123	-0.33776622402947
20	13	12	1.4744299653452
20	14	13	2.9765320279635
20	15	14	4.685353896115
20	16	15	7.0630248245085
20	17	16	9.5616347860312
20	18	17	11.389007115108
20	19	18	13.255891963816
20	20	19	13.361676496636
20	21	20	13.84902992453
20	22	21	13.382411581577
20	23	22	13.047597135506
20	24	23	13.477922831216
20	25	24	14.021348701344
20	26	25	13.558416242102
20	27	26	13.488015102871
20	28	27	14.255918213046
20	29	28	13.18879869347
20	30	29	13.930857441594
20	31	30	13.197133269716
20	32	31	13.064716540296
20	33	32	13.234844748369
20	34	33	13.027222491401
20	35	34	13.558219920328
20	36	35	12.766488734175
20	37	36	8.2664887341745
20	38	37	3.7664887341745
20	39	38	3.1471737446804
20	40	39	4.6034172789035
20	41	40	7.1686140141059
20	42	41	8.7060091770794
20	43	42	10.051474305529
20	44	43	12.36355858858
20	45	44	13.795281644837
20	46	45	14.203275155156
20	47	46	13.849870344457
20	48	47	14.093974294021
20	49	48	13.549739989052
20	50	49	13.752153298255
20	51	50	13.865287605273
20	52	51	13.977687609192
20	53	52	13.775857847646
20	54	53	14.059745102395
20	55	54	13.254271370169
20	56	55	13.822175501097
20	57	56	13.94687574254
20	58	57	13.419872922889
20	59	58	13.177363876925
20	60	59	13.424037981472
20	61	60	12.480928286742
20	62	61	8.8852094582344
20	63	62	5.4415413773215
20	64	63	3.7683256142614
20	65	64	5.8335122618899
20	66	65	7.3865788132492
20	67	66	9.944249617409
20	68	67	11.360545845733
20	69	68	12.72914415757
20	70	69	13.330943859458
20	71	70	13.131086277096
20	72	71	14.245097983368
20	73	72	13.537296600007
20	74	73	13.51491349055
20	75	74	13.494643116017
20	76	75	13.337581503574
20	77	76	13.488017633879
20	78	77	13.940127200769
20	79	78	14.139108218691
20	80	79	13.327248037253
20	81	80	14.010191961607
20	82	81	13.970021886375
20	83	82	13.229040146359
20	84	83	14.209710541038
20	85	84	13.941455938617
20	86	85	12.559655609809
20	87	86	9.0633541277033
20	88	87	4.8655221053055
20	89	88	3.3887762460699
20	90	89	3.1134096914511
20	91	90	4.8908829944748
20	92	91	7.1692416522261
20	93	92	8.5658786093425
20	94	93	9.9585627887472
20	95	94	11.498408998254
20	96	95	13.410189352541
20	97	96	13.078925716594
20	98	97	14.003500784022
20	99	98	13.695974717402
20	100	99	14.264455808462
20	101	100	13.751741079796
20	102	101	13.022435916398
20	103	102	13.566816472025
20	104	103	13.972641049764
20	105	104	11.978440557916
20	106	105	9.6506806885659
20	107	106	5.4325837675177
20	108	107	6.3047512931444
20	109	108	7.9438930214776
20	110	109	9.747002363221
20	111	110	12.093564771784
20	112	111	13.803319203174
20	113	112	14.073031178136
20	114	113	12.064560613833
20	115	114	8.1010715988871
20	116	115	4.474503064106
20	117	116	6.706907775157
20	118	117	8.424403520624
20	119	118	9.8822888592927
20	120	119	12.209659141509
20	121	120	13.511663425244
20	122	121	13.342324058032
20	123	122	13.782379910136
20	124	123	13.444613686107
19	12	11	26.6
19	13	12	26.6
19	14	13	26.6
19	15	14	26.6
19	16	15	26.6
19	17	16	26.6
19	18	17	26.6
19	19	18	26.6
19	20	19	26.6
19	21	20	26.6
19	22	21	26.6
19	23	22	26.6
19	24	23	26.6
19	25	24	26.6
19	26	25	26.6
19	27	26	26.6
19	28	27	26.6
19	29	28	26.6
19	30	29	26.6
19	31	30	26.6
19	32	31	26.6
19	33	32	26.6
19	34	33	26.6
19	35	34	26.6
19	36	35	26.6
19	37	36	26.6
19	38	37	27.971751326998
19	39	38	31.116643860093
19	40	39	35.720061138997
19	41	40	42.888675153103
19	42	41	51.594684330182
19	43	42	61.646158635711
19	44	43	74.009717224291
19	45	44	87.804998869128
19	46	45	102.00827402428
19	47	46	115.85814436874
19	48	47	129.95211866276
19	49	48	143.50185865181
19	50	49	157.25401195007
19	51	50	171.11929955534
19	52	51	185.09698716453
19	53	52	198.87284501218
19	54	53	212.93259011457
19	55	54	226.18686148474
19	56	55	240.00903698584
19	57	56	253.95591272838
19	58	57	267.37578565127
19	59	58	280.55314952819
19	60	59	293.97718750966
19	61	60	306.45811579641
19	62	61	315.34332525464
19	63	62	320.78486663196
19	64	63	323.4
19	65	64	323.4
19	66	65	323.4
19	67	66	323.4
19	68	67	323.4
19	69	68	323.4
19	70	69	323.4
19	71	70	323.4
19	72	71	323.4
19	73	72	323.4
19	74	73	323.4
19	75	74	323.4
19	76	75	323.4
19	77	76	323.4
19	78	77	323.4
19	79	78	323.4
19	80	79	323.4
19	81	80	323.4
19	82	81	323.4
19	83	82	323.4
19	84	83	323.4
19	85	84	323.4
19	86	85	323.4
19	87	86	323.4
19	88	87	323.4
19	89	88	321.82869775713
19	90	89	318.71557488293
19	91	90	313.82469188845
19	92	91	306.65545023623
19	93	92	298.08957162688
19	94	93	288.13100883814
19	95	94	276.63259983988
19	96	95	263.22241048734
19	97	96	250.14348477075
19	98	97	236.13998398673
19	99	98	222.44400926933
19	100	99	208.17955346086
19	101	100	194.42781238107
19	102	101	181.40537646467
19	103	102	167.83855999264
19	104	103	153.86591894288
19	105	104	141.88747838496
19	106	105	132.2367976964
19	107	106	127.54676835523
19	108	107	126.6
19	109	108	126.6
19	110	109	126.6
19	111	110	126.6
19	112	111	126.6
19	113	112	126.6
19	114	113	126.6
19	115	114	126.6
19	116	115	126.6
19	117	116	126.6
19	118	117	126.6
19	119	118	126.6
19	120	119	126.6
19	121	120	126.6
19	122	121	126.6
19	123	122	126.6
19	124	123	126.6
18	12	11	33.3
18	13	12	34.774429965345
18	14	13	37.750961993309
18	15	14	42.436315889424
18	16	15	49.499340713932
18	17	16	59.060975499963
18	18	17	70.449982615071
18	19	18	83.705874578888
18	20	19	97.067551075524
18	21	20	110.91658100005
18	22	21	124.29899258163
18	23	22	137.34658971714
18	24	23	150.82451254835
18	25	24	164.8458612497
18	26	25	178.4042774918
18	27	26	191.89229259467
18	28	27	206.14821080771
18	29	28	219.33700950119
18	30	29	233.26786694278
18	31	30	246.46500021249
18	32	31	259.52971675279
18	33	32	272.76456150116
18	34	33	285.79178399256
18	35	34	299.35000391289
18	36	35	312.11649264706
18	37	36	320.38298138124
18	38	37	323.36739304671
18	39	38	323.4
18	40	39	323.4
18	41	40	323.4
18	42	41	323.4
18	43	42	323.4
18	44	43	323.4
18	45	44	323.4
18	46	45	323.4
18	47	46	323.4
18	48	47	323.4
18	49	48	323.4
18	50	49	323.4
18	51	50	323.4
18	52	51	323.4
18	53	52	323.4
18	54	53	323.4
18	55	54	323.4
18	56	55	323.4
18	57	56	323.4
18	58	57	323.4
18	59	58	323.4
18	60	59	323.4
18	61	60	323.4
18	62	61	323.4
18	63	62	323.4
18	64	63	321.62680775378
18	65	64	315.79329549189
18	66	65	308.40671667864
18	67	66	298.46246706123
18	68	67	287.1019212155
18	69	68	274.37277705793
18	70	69	261.04183319847
18	71	70	247.91074692137
18	72	71	233.665648938
18	73	72	220.128352338
18	74	73	206.61343884744
18	75	74	193.11879573143
18	76	75	179.78121422785
18	77	76	166.29319659398
18	78	77	152.35306939321
18	79	78	138.21396117452
18	80	79	124.88671313726
18	81	80	110.87652117565
18	82	81	96.90649928928
18	83	82	83.677459142921
18	84	83	69.467748601884
18	85	84	55.526292663267
18	86	85	42.966637053458
18	87	86	33.903282925755
18	88	87	29.037760820449
18	89	88	26.60409967959
18	90	89	26.6
18	91	90	26.6
18	92	91	26.6
18	93	92	26.6
18	94	93	26.6
18	95	94	26.6
18	96	95	26.6
18	97	96	26.6
18	98	97	26.6
18	99	98	26.6
18	100	99	26.6
18	101	100	26.6
18	102	101	26.6
18	103	102	26.6
18	104	103	26.6
18	105	104	26.6
18	106	105	26.6
18	107	106	28.755386074624
18	108	107	34.870537364263
18	109	108	42.814430385741
18	110	109	52.561432748962
18	111	110	64.654997520746
18	112	111	78.45831672392
18	113	112	92.531347902056
18	114	113	104.59590851589
18	115	114	112.69698011478
18	116	115	117.17148317888
18	117	116	123.87839095404
18	118	117	132.30279447466
18	119	118	142.18508333396
18	120	119	154.39474247547
18	121	120	167.90640590071
18	122	121	181.24872995874
18	123	122	195.03110986888
18	124	123	208.47572355499
29	19	18	3.6510682565906
29	20	19	4.9083350603566
29	21	20	6.150053450988
29	22	21	5.8857050410128
29	23	22	8.2327540133429
29	24	23	7.4817513151832
29	25	24	0.973
29	26	25	0.973
29	27	26	3.3257816533606
29	28	27	2.6899038813922
29	29	28	1.4963984081707
29	30	29	3.4371263603212
29	31	30	0.973
29	32	31	2.7891918587387
29	33	32	5.0402645919885
29	34	33	0.973
29	35	34	1.5078702306137
29	36	35	0.973
29	37	36	2.0650211758152
29	38	37	1.8943561938746
29	39	38	5.7644140123175
29	40	39	0.973
29	41	40	0.973
29	42	41	0.973
29	43	42	0.973
29	44	43	1.2219301322866
29	45	44	2.6374660094711
29	46	45	4.3482139996828
29	47	46	6.6407617056978
29	48	47	5.6920390962114
29	49	48	5.463822913701
29	50	49	6.0894772447703
29	51	50	2.3219584668241
29	52	51	5.4623077086088
29	53	52	0.973
29	54	53	2.2503789865653
29	55	54	2.0730790001643
29	56	55	0.973
29	57	56	5.3033449301791
29	58	57	0.973
29	59	58	2.3767763176301
29	60	59	1.124127603558
29	61	60	1.8538590998297
29	62	61	3.8979721192422
29	63	62	3.6941736741288
29	64	63	0.973
29	65	64	1.7020721176288
29	66	65	5.2878677174634
29	67	66	0.973
29	68	67	0.973
29	69	68	0.973
29	70	69	0.973
29	71	70	1.5327104426415
29	72	71	3.5987381988403
29	73	72	5.6058201458374
29	74	73	5.0413798455024
29	75	74	7.9707252931088
29	76	75	8.2933702049314
29	77	76	5.1899530450104
29	78	77	0.973
29	79	78	4.4804939844102
29	80	79	0.973
29	81	80	4.4223700788629
29	82	81	1.137593625467
29	83	82	0.973
29	84	83	2.8905155529287
29	85	84	1.7444874339225
29	86	85	2.1785496977782
29	87	86	2.5630646540389
29	88	87	3.6591194293245
29	89	88	0.973
29	90	89	1.2069929555094
29	91	90	2.9099966163062
29	92	91	2.4497110440394
29	93	92	1.6641787104575
29	94	93	0.973
29	95	94	0.973
29	96	95	0.973
29	97	96	0.973
29	98	97	2.7023896998735
29	99	98	4.4890006358059
29	100	99	3.8725446042996
29	101	100	4.9225187155661
29	102	101	7.598888652865
29	103	102	6.0344786983141
29	104	103	6.1565966269639
29	105	104	0.973
29	106	105	3.216356225773
29	107	106	3.3537538162248
29	108	107	0.973
29	109	108	3.3456689481725
29	110	109	0.973
29	111	110	3.2035678871671
29	112	111	1.2066292951637
29	113	112	0.973
29	114	113	0.973
29	115	114	0.973
29	116	115	1.8520911010509
29	117	116	6.8424187463529
29	118	117	5.590921427867
29	119	118	7.8331815492596
29	120	119	7.4848429868929
29	121	120	0.973
29	122	121	0.973
29	123	122	0.973
29	124	123	4.5716541401098
29	125	124	7.06732257451
29	126	125	6.2615786560983
29	127	126	5.7202904439565
29	128	127	0.973
29	129	128	2.1074660242082
29	130	129	2.2348786214215
29	131	130	5.3360615851707
28	19	18	2.3940121726831
28	20	19	2.2746343046427
28	21	20	2.2184665654786
28	22	21	1.6944060695823
28	23	22	2.1300045818323
28	24	23	1.6150624752473
28	25	24	-0.28522908471059
28	26	25	-0.51859088751953
28	27	26	0.40563757698983
28	28	27	0.20227444786578
28	29	28	-0.1538862451911
28	30	29	0.41150335513521
28	31	30	-1.1757338056806
28	32	31	0.26405205149204
28	33	32	0.88727800741326
28	34	33	-0.66348448721692
28	35	34	-0.14225226046983
28	36	35	-0.27385106543079
28	37	36	0.040373584139161
28	38	37	-0.013758909166791
28	39	38	1.0967712174403
28	40	39	-1.2490605081791
28	41	40	-3.3233694209174
28	42	41	-3.0820291676326
28	43	42	-3.6523702057569
28	44	43	-0.032809082604945
28	45	44	1.3481385465944
28	46	45	1.9976775225252
28	47	46	2.4607030845713
28	48	47	1.6305036038626
28	49	48	1.3218831371516
28	50	49	1.3466019376181
28	51	50	0.12357390747213
28	52	51	1.0172409277409
28	53	52	-0.51470679452177
28	54	53	0.079058773536236
28	55	54	0.023951721680351
28	56	55	-0.43729765273165
28	57	56	0.95912287801039
28	58	57	-0.95442967428826
28	59	58	0.12886185280513
28	60	59	-0.26042735723313
28	61	60	-0.026737399538979
28	62	61	0.58282999042422
28	63	62	0.48780657048337
28	64	63	-1.1268349415623
28	65	64	-0.072126518120058
28	66	65	0.98054349010344
28	67	66	-2.0299984043072
28	68	67	-3.6829250671482
28	69	68	-4.5
28	70	69	-0.93774546202736
28	71	70	0.37211035408545
28	72	71	1.8848307949491
28	73	72	2.3438892292324
28	74	73	1.6063949572155
28	75	74	2.2983573178062
28	76	75	1.9956333255162
28	77	76	0.92433796625857
28	78	77	-1.0303446077043
28	79	78	0.73954816900659
28	80	79	-0.54888826776296
28	81	80	0.70897128330544
28	82	81	-0.26380762632471
28	83	82	-0.63292049688753
28	84	83	0.2845888472395
28	85	84	-0.069692306639627
28	86	85	0.06362157398835
28	87	86	0.17546369810589
28	88	87	0.47984591007698
28	89	88	-0.79868635148741
28	90	89	-0.23366038375534
28	91	90	0.29524065193255
28	92	91	0.14527747551911
28	93	92	-0.095504828286357
28	94	93	-3.2403830741047
28	95	94	-4.0226386434166
28	96	95	-2.7081742116343
28	97	96	-0.65078073237091
28	98	97	1.4045393156353
28	99	98	2.0607199682854
28	100	99	1.312135837879
28	101	100	1.5264444440836
28	102	101	2.1637843629112
28	103	102	1.3698618403403
28	104	103	1.2465864134328
28	105	104	-0.49453236132395
28	106	105	0.36845311236102
28	107	106	0.38728844607249
28	108	107	-0.76571654437576
28	109	108	0.40608593602665
28	110	109	-0.68115719044581
28	111	110	0.3803823152557
28	112	111	-0.23590321561787
28	113	112	-2.8085064983323
28	114	113	-3.7544297395973
28	115	114	-1.0446089486126
28	116	115	0.31298952847719
28	117	116	2.5903387362603
28	118	117	1.6107781668426
28	119	118	2.0490346808452
28	120	119	1.6508302621172
28	121	120	-0.80036151548848
28	122	121	-0.71344227320791
28	123	122	-4.5
28	124	123	1.348872832139
28	125	124	1.9853568610735
28	126	125	1.4471580943558
28	127	126	1.1299313376685
28	128	127	-0.66233104367275
28	129	128	0.052080171462149
28	130	129	0.089295473415405
28	131	130	0.96766375750303
27	18	17	1.6605673349462
27	19	18	4.0545795076294
27	20	19	6.3292138122721
27	21	20	8.5476803777507
27	22	21	10.242086447333
27	23	22	12.372091029165
27	24	23	13.987153504413
27	25	24	13.701924419702
27	26	25	13.183333532183
27	27	26	13.588971109172
27	28	27	13.791245557038
27	29	28	13.637359311847
27	30	29	14.048862666982
27	31	30	12.873128861302
27	32	31	13.137180912794
27	33	32	14.024458920207
27	34	33	13.36097443299
27	35	34	13.21872217252
27	36	35	12.944871107089
27	37	36	12.985244691229
27	38	37	12.971485782062
27	39	38	14.068256999502
27	40	39	12.819196491323
27	41	40	9.4958270704054
27	42	41	6.4137979027729
27	43	42	2.761427697016
27	44	43	2.7286186144111
27	45	44	4.0767571610055
27	46	45	6.0744346835307
27	47	46	8.535137768102
27	48	47	10.165641371965
27	49	48	11.487524509116
27	50	49	12.834126446734
27	51	50	12.957700354206
27	52	51	13.974941281947
27	53	52	13.460234487426
27	54	53	13.539293260962
27	55	54	13.563244982642
27	56	55	13.12594732991
27	57	56	14.085070207921
27	58	57	13.130640533633
27	59	58	13.259502386438
27	60	59	12.999075029205
27	61	60	12.972337629666
27	62	61	13.55516762009
27	63	62	14.042974190573
27	64	63	12.916139249011
27	65	64	12.844012730891
27	66	65	13.824556220994
27	67	66	11.794557816687
27	68	67	8.1116327495389
27	69	68	3.6116327495389
27	70	69	2.6738872875116
27	71	70	3.045997641597
27	72	71	4.9308284365461
27	73	72	7.2747176657785
27	74	73	8.8811126229941
27	75	74	11.1794699408
27	76	75	13.175103266317
27	77	76	14.099441232575
27	78	77	13.069096624871
27	79	78	13.808644793877
27	80	79	13.259756526114
27	81	80	13.96872780942
27	82	81	13.704920183095
27	83	82	13.071999686208
27	84	83	13.356588533447
27	85	84	13.286896226808
27	86	85	13.350517800796
27	87	86	13.525981498902
27	88	87	14.005827408979
27	89	88	13.207141057491
27	90	89	12.973480673736
27	91	90	13.268721325669
27	92	91	13.413998801188
27	93	92	13.318493972901
27	94	93	10.078110898797
27	95	94	6.05547225538
27	96	95	3.3472980437456
27	97	96	2.6965173113747
27	98	97	4.1010566270101
27	99	98	6.1617765952955
27	100	99	7.4739124331745
27	101	100	9.0003568772581
27	102	101	11.164141240169
27	103	102	12.53400308051
27	104	103	13.780589493942
27	105	104	13.286057132619
27	106	105	13.65451024498
27	107	106	14.041798691052
27	108	107	13.276082146676
27	109	108	13.682168082703
27	110	109	13.001010892257
27	111	110	13.381393207513
27	112	111	13.145489991895
27	113	112	10.336983493563
27	114	113	6.5825537539654
27	115	114	5.5379448053528
27	116	115	5.85093433383
27	117	116	8.4412730700903
27	118	117	10.052051236933
27	119	118	12.101085917778
27	120	119	13.751916179895
27	121	120	12.951554664407
27	122	121	12.238112391199
27	123	122	7.738112391199
27	124	123	9.086985223338
27	125	124	11.072342084412
27	126	125	12.519500178767
27	127	126	13.649431516436
27	128	127	12.987100472763
27	129	128	13.039180644225
27	130	129	13.128476117641
27	131	130	14.096139875144
26	17	16	26.6
26	18	17	26.6
26	19	18	26.6
26	20	19	26.6
26	21	20	26.6
26	22	21	26.6
26	23	22	26.6
26	24	23	26.6
26	25	24	26.6
26	26	25	26.6
26	27	26	26.6
26	28	27	26.6
26	29	28	26.6
26	30	29	26.6
26	31	30	26.6
26	32	31	26.6
26	33	32	26.6
26	34	33	26.6
26	35	34	26.6
26	36	35	26.6
26	37	36	26.6
26	38	37	26.6
26	39	38	26.6
26	40	39	26.6
26	41	40	26.6
26	42	41	26.6
26	43	42	27.368472358241
26	44	43	30.068260266056
26	45	44	34.145017427061
26	46	45	40.219452110592
26	47	46	48.754589878694
26	48	47	58.920231250658
26	49	48	70.407755759774
26	50	49	83.241882206509
26	51	50	96.199582560715
26	52	51	110.17452384266
26	53	52	123.63475833009
26	54	53	137.17405159105
26	55	54	150.73729657369
26	56	55	163.8632439036
26	57	56	177.94831411152
26	58	57	191.07895464516
26	59	58	204.33845703159
26	60	59	217.3375320608
26	61	60	230.30986969046
26	62	61	243.86503731055
26	63	62	257.90801150113
26	64	63	270.82415075014
26	65	64	283.66816348103
26	66	65	297.49271970202
26	67	66	309.28727751871
26	68	67	317.39891026825
26	69	68	321.01054301779
26	70	69	323.30161618923
26	71	70	323.4
26	72	71	323.4
26	73	72	323.4
26	74	73	323.4
26	75	74	323.4
26	76	75	323.4
26	77	76	323.4
26	78	77	323.4
26	79	78	323.4
26	80	79	323.4
26	81	80	323.4
26	82	81	323.4
26	83	82	323.4
26	84	83	323.4
26	85	84	323.4
26	86	85	323.4
26	87	86	323.4
26	88	87	323.4
26	89	88	323.4
26	90	89	323.4
26	91	90	323.4
26	92	91	323.4
26	93	92	323.4
26	94	93	323.4
26	95	94	323.4
26	96	95	322.01507521606
26	97	96	319.3207074553
26	98	97	315.21965082828
26	99	98	309.05787423299
26	100	99	301.58396179981
26	101	100	292.58360492256
26	102	101	281.41946368239
26	103	102	268.88546060188
26	104	103	255.10487110794
26	105	104	241.81881397532
26	106	105	228.16430373034
26	107	106	214.12250503929
26	108	107	200.84642289261
26	109	108	187.16425480991
26	110	109	174.16324391765
26	111	110	160.78185071014
26	112	111	147.63636071824
26	113	112	137.29937722468
26	114	113	130.73150026408
26	115	114	126.88414282563
26	116	115	126.6
26	117	116	126.6
26	118	117	126.6
26	119	118	126.6
26	120	119	126.6
26	121	120	126.6
26	122	121	126.6
26	123	122	126.6
26	124	123	126.6
26	125	124	126.6
26	126	125	126.6
26	127	126	126.6
26	128	127	126.6
26	129	128	126.6
26	130	129	126.6
26	131	130	126.6
25	17	16	33.3
25	18	17	34.960567334946
25	19	18	39.015146842576
25	20	19	45.344360654848
25	21	20	53.892041032598
25	22	21	64.134127479931
25	23	22	76.506218509097
25	24	23	90.493372013509
25	25	24	104.19529643321
25	26	25	117.37862996539
25	27	26	130.96760107457
25	28	27	144.7588466316
25	29	28	158.39620594345
25	30	29	172.44506861043
25	31	30	185.31819747174
25	32	31	198.45537838453
25	33	32	212.47983730474
25	34	33	225.84081173773
25	35	34	239.05953391025
25	36	35	252.00440501734
25	37	36	264.98964970856
25	38	37	277.96113549063
25	39	38	292.02939249013
25	40	39	304.84858898145
25	41	40	314.34441605186
25	42	41	320.75821395463
25	43	42	323.22108341494
25	44	43	323.4
25	45	44	323.4
25	46	45	323.4
25	47	46	323.4
25	48	47	323.4
25	49	48	323.4
25	50	49	323.4
25	51	50	323.4
25	52	51	323.4
25	53	52	323.4
25	54	53	323.4
25	55	54	323.4
25	56	55	323.4
25	57	56	323.4
25	58	57	323.4
25	59	58	323.4
25	60	59	323.4
25	61	60	323.4
25	62	61	323.4
25	63	62	323.4
25	64	63	323.4
25	65	64	323.4
25	66	65	323.4
25	67	66	323.4
25	68	67	323.4
25	69	68	323.4
25	70	69	322.4886866754
25	71	70	319.4495720531
25	72	71	314.51874361656
25	73	72	307.24402595078
25	74	73	298.36291332778
25	75	74	287.18344338698
25	76	75	274.00834012067
25	77	76	259.90889888809
25	78	77	246.83980226322
25	79	78	233.03115746934
25	80	79	219.77140094323
25	81	80	205.80267313381
25	82	81	192.09775295072
25	83	82	179.02575326451
25	84	83	165.66916473106
25	85	84	152.38226850425
25	86	85	139.03175070346
25	87	86	125.50576920456
25	88	87	111.49994179558
25	89	88	98.292800738085
25	90	89	85.319320064349
25	91	90	72.050598738681
25	92	91	58.636599937493
25	93	92	45.318105964592
25	94	93	35.239995065795
25	95	94	29.184522810415
25	96	95	26.630725030866
25	97	96	26.6
25	98	97	26.6
25	99	98	26.6
25	100	99	26.6
25	101	100	26.6
25	102	101	26.6
25	103	102	26.6
25	104	103	26.6
25	105	104	26.6
25	106	105	26.6
25	107	106	26.6
25	108	107	26.6
25	109	108	26.6
25	110	109	26.6
25	111	110	26.6
25	112	111	26.6
25	113	112	26.6
25	114	113	26.80978567656
25	115	114	30.21100022059
25	116	115	36.04205566847
25	117	116	44.48332873856
25	118	117	54.535379975493
25	119	118	66.636465893271
25	120	119	80.388382073167
25	121	120	93.339936737574
25	122	121	105.57804912877
25	123	122	113.31616151997
25	124	123	122.40314674331
25	125	124	133.47548882772
25	126	125	145.99498900649
25	127	126	159.64442052292
25	128	127	172.63152099569
25	129	128	185.67070163991
25	130	129	198.79917775755
25	131	130	212.8953176327
36	24	23	3.7397654645435
36	25	24	4.5223036506099
36	26	25	6.7643595444737
36	27	26	5.1529041882568
36	28	27	7.1403389872324
36	29	28	1.5419840603879
36	30	29	2.4013308043841
36	31	30	0.973
36	32	31	4.7758197547907
36	33	32	0.973
36	34	33	1.7933405445355
36	35	34	5.0452813081842
36	36	35	0.973
36	37	36	4.3324196783233
36	38	37	2.4943048025241
36	39	38	0.973
36	40	39	2.1736664705717
36	41	40	1.6396379123997
36	42	41	1.3526517418555
36	43	42	2.6986894931789
36	44	43	2.5286796739272
36	45	44	0.973
36	46	45	2.2008531233738
36	47	46	3.2649541041346
36	48	47	0.973
36	49	48	0.973
36	50	49	0.973
36	51	50	0.973
36	52	51	1.7933233060368
36	53	52	4.576262432462
36	54	53	5.3536235337599
36	55	54	6.6817259080332
36	56	55	7.1711088531253
36	57	56	0.973
36	58	57	3.6140210114633
36	59	58	0.973
36	60	59	3.6737330683133
36	61	60	1.6280488907186
36	62	61	1.5504197467333
36	63	62	0.973
36	64	63	2.7609838427017
36	65	64	2.6436409825541
36	66	65	1.8164522152172
36	67	66	0.973
36	68	67	2.2950752611714
36	69	68	3.1727194179927
36	70	69	1.9251448410942
36	71	70	1.2323325663571
36	72	71	2.4476261088106
36	73	72	2.608177426439
36	74	73	0.973
36	75	74	5.5990222636694
36	76	75	0.973
36	77	76	0.973
36	78	77	0.973
36	79	78	0.973
36	80	79	0.973
36	81	80	0.973
36	82	81	3.9374174284035
36	83	82	4.585103487337
36	84	83	5.9352790970829
36	85	84	6.878216137211
36	86	85	2.7106054706288
36	87	86	4.46244504463
36	88	87	0.973
36	89	88	2.3700069427842
36	90	89	0.973
36	91	90	3.9815013951676
36	92	91	2.3636425501813
36	93	92	0.973
36	94	93	3.0856754219919
36	95	94	1.4434600310802
36	96	95	2.9232275282019
36	97	96	3.0445506520908
36	98	97	0.973
36	99	98	1.701777021438
36	100	99	4.361991401673
36	101	100	2.7191650108239
36	102	101	0.973
36	103	102	3.9748625072653
36	104	103	0.973
36	105	104	0.973
36	106	105	2.1331030485775
36	107	106	0.973
36	108	107	0.973
36	109	108	0.973
36	110	109	1.2129799013207
36	111	110	3.7656956003711
36	112	111	4.7930101696784
36	113	112	5.2681452308727
36	114	113	7.146613181489
36	115	114	4.1287351022161
36	116	115	3.3102824070113
36	117	116	0.973
36	118	117	4.94143900446
36	119	118	0.973
36	120	119	3.1286421292544
36	121	120	1.5483040183313
36	122	121	1.6132018057596
36	123	122	2.5314457722929
36	124	123	0.973
36	125	124	3.4730090455947
36	126	125	1.5344390378668
36	127	126	0.973
36	128	127	0.973
36	129	128	0.973
36	130	129	2.3001418617919
36	131	130	6.0225515675424
36	132	131	4.7979960361424
36	133	132	9.1278321363521
36	134	133	0.973
36	135	134	2.1181866297233
36	136	135	1.1965296969431
36	137	136	0.973
36	138	137	0.973
36	139	138	4.1371204061765
36	140	139	7.1325588543384
36	141	140	6.2140644764856
36	142	141	2.4919304795004
36	143	142	2.5840462132358
36	144	143	0.973
36	145	144	2.8494686550402
36	146	145	1.3283205577239
36	147	146	0.973
35	24	23	2.3204192137346
35	25	24	2.0191258646315
35	26	25	2.4428576256149
35	27	26	1.4070068893954
35	28	27	1.827392696069
35	29	28	-0.10402103271336
35	30	29	0.18672610882204
35	31	30	-0.89730657555629
35	32	31	0.99075591627043
35	33	32	-1.0531072891783
35	34	33	0.0066981640411541
35	35	34	1.0786475848174
35	36	35	-1.0958705324447
35	37	36	0.86031049673911
35	38	37	0.21361542367376
35	39	38	-0.78159244323615
35	40	39	0.13086742423475
35	41	40	-0.059490445512347
35	42	41	-0.16048902755138
35	43	42	0.31405224585906
35	44	43	0.24103551758453
35	45	44	-0.45344494583551
35	46	45	0.13972130373586
35	47	46	0.48579113502055
35	48	47	-0.51425394916441
35	49	48	-4.5
35	50	49	-3.4523699539505
35	51	50	-1.0668841053207
35	52	51	0.68095497579779
35	53	52	2.3689451505663
35	54	53	2.0787529873429
35	55	54	2.1274157224456
35	56	55	1.9008612716768
35	57	56	-0.35046099897008
35	58	57	0.61504112870898
35	59	58	-0.48751517091878
35	60	59	0.6244304833468
35	61	60	-0.076345707662403
35	62	61	-0.10096146562137
35	63	62	-0.77564452383667
35	64	63	0.34638873778749
35	65	64	0.28782125965227
35	66	65	-0.0038678033743054
35	67	66	-0.70788927008398
35	68	67	0.18891549136024
35	69	68	0.47767477943562
35	70	69	0.03470881204121
35	71	70	-0.2072842689231
35	72	71	0.21862983305473
35	73	72	0.26139163677581
35	74	73	-1.0574431409128
35	75	74	1.2652110416675
35	76	75	-0.41250489971135
35	77	76	-0.48201528668869
35	78	77	-3.485974306811
35	79	78	-4.2052658921573
35	80	79	-0.29337473270376
35	81	80	-0.41276008877903
35	82	81	2.1120537927141
35	83	82	1.8657483733958
35	84	83	2.0114331793971
35	85	84	1.9536190949846
35	86	85	0.34311852720217
35	87	86	0.89147783059161
35	88	87	-0.63419169560075
35	89	88	0.195214189752
35	90	89	-0.31517572712619
35	91	90	0.72906742927153
35	92	91	0.16653907869477
35	93	92	-1.2456357804593
35	94	93	0.46360077087302
35	95	94	-0.12763252530713
35	96	95	0.38801261545159
35	97	96	0.40442130255979
35	98	97	-1.0589511203114
35	99	98	-0.024986707535572
35	100	99	0.87592452911194
35	101	100	0.28883526041172
35	102	101	-0.8522137787193
35	103	102	0.72639901714865
35	104	103	-0.40683846771717
35	105	104	-0.67254323768429
35	106	105	0.13288978713099
35	107	106	-1.3943338253086
35	108	107	-4.5
35	109	108	-3.079448199267
35	110	109	-0.0052122445544227
35	111	110	2.2720492665889
35	112	111	2.1138245632872
35	113	112	1.8299438273534
35	114	113	2.137296285294
35	115	114	0.85129736000323
35	116	115	0.51352782568429
35	117	116	-0.81661812535022
35	118	117	1.0543835456716
35	119	118	-0.49215117935091
35	120	119	0.43775268041063
35	121	120	-0.10314684582409
35	122	121	-0.078773786243984
35	123	122	0.23011230169796
35	124	123	-0.68112811925821
35	125	124	0.56159456965979
35	126	125	-0.10634922150057
35	127	126	-1.9290428757112
35	128	127	-3.3925294404849
35	129	128	-1.7342911597292
35	130	129	0.68246731832623
35	131	130	2.3616525236284
35	132	131	1.4128213726915
35	133	132	2.5535414493876
35	134	133	-0.32227964796119
35	135	134	0.10748723866418
35	136	135	-0.21867562639527
35	137	136	-0.59114504345047
35	138	137	-4.0909749315237
35	139	138	1.3320558720035
35	140	139	2.1948434684426
35	141	140	1.5409202887123
35	142	141	0.22133343261667
35	143	142	0.24088888948318
35	144	143	-0.42134303017519
35	145	144	0.33563351768534
35	146	145	-0.17985355730634
35	147	146	-0.91650272512343
34	23	22	1.9964566827752
34	24	23	4.3168758965097
34	25	24	6.3360017611412
34	26	25	8.7788593867561
34	27	26	10.185866276151
34	28	27	12.013258972221
34	29	28	11.909237939507
34	30	29	12.095964048329
34	31	30	11.198657472773
34	32	31	12.189413389043
34	33	32	11.136306099865
34	34	33	11.143004263906
34	35	34	12.221651848724
34	36	35	11.125781316279
34	37	36	11.986091813018
34	38	37	12.199707236692
34	39	38	11.418114793456
34	40	39	11.54898221769
34	41	40	11.489491772178
34	42	41	11.329002744627
34	43	42	11.643054990486
34	44	43	11.88409050807
34	45	44	11.430645562235
34	46	45	11.570366865971
34	47	46	12.056158000991
34	48	47	11.541904051827
34	49	48	7.0419040518267
34	50	49	3.5895340978763
34	51	50	2.5226499925555
34	52	51	3.2036049683533
34	53	52	5.5725501189196
34	54	53	7.6513031062625
34	55	54	9.7787188287081
34	56	55	11.679580100385
34	57	56	11.329119101415
34	58	57	11.944160230124
34	59	58	11.456645059205
34	60	59	12.081075542552
34	61	60	12.004729834889
34	62	61	11.903768369268
34	63	62	11.128123845431
34	64	63	11.474512583219
34	65	64	11.762333842871
34	66	65	11.758466039497
34	67	66	11.050576769413
34	68	67	11.239492260773
34	69	68	11.717167040209
34	70	69	11.75187585225
34	71	70	11.544591583327
34	72	71	11.763221416382
34	73	72	12.024613053157
34	74	73	10.967169912245
34	75	74	12.232380953912
34	76	75	11.819876054201
34	77	76	11.337860767512
34	78	77	7.851886460701
34	79	78	3.6466205685437
34	80	79	3.3532458358399
34	81	80	2.9404857470609
34	82	81	5.052539539775
34	83	82	6.9182879131708
34	84	83	8.9297210925679
34	85	84	10.883340187553
34	86	85	11.226458714755
34	87	86	12.117936545346
34	88	87	11.483744849746
34	89	88	11.678959039498
34	90	89	11.363783312371
34	91	90	12.092850741643
34	92	91	12.259389820338
34	93	92	11.013754039878
34	94	93	11.477354810751
34	95	94	11.349722285444
34	96	95	11.737734900896
34	97	96	12.142156203456
34	98	97	11.083205083144
34	99	98	11.058218375609
34	100	99	11.934142904721
34	101	100	12.222978165132
34	102	101	11.370764386413
34	103	102	12.097163403562
34	104	103	11.690324935845
34	105	104	11.01778169816
34	106	105	11.150671485291
34	107	106	9.7563376599826
34	108	107	5.2563376599826
34	109	108	2.1768894607156
34	110	109	2.1716772161612
34	111	110	4.4437264827501
34	112	111	6.5575510460373
34	113	112	8.3874948733907
34	114	113	10.524791158685
34	115	114	11.376088518688
34	116	115	11.889616344372
34	117	116	11.072998219022
34	118	117	12.127381764694
34	119	118	11.635230585343
34	120	119	12.072983265753
34	121	120	11.969836419929
34	122	121	11.891062633685
34	123	122	12.121174935383
34	124	123	11.440046816125
34	125	124	12.001641385785
34	126	125	11.895292164284
34	127	126	9.9662492885729
34	128	127	6.573719848088
34	129	128	4.8394286883588
34	130	129	5.5218960066851
34	131	130	7.8835485303135
34	132	131	9.296369903005
34	133	132	11.849911352393
34	134	133	11.527631704431
34	135	134	11.635118943096
34	136	135	11.4164433167
34	137	136	10.82529827325
34	138	137	6.7343233417262
34	139	138	8.0663792137297
34	140	139	10.261222682172
34	141	140	11.802142970885
34	142	141	12.023476403501
34	143	142	12.264365292984
34	144	143	11.843022262809
34	145	144	12.178655780495
34	146	145	11.998802223188
34	147	146	11.082299498065
33	22	21	26.6
33	23	22	26.6
33	24	23	26.6
33	25	24	26.6
33	26	25	26.6
33	27	26	26.6
33	28	27	26.6
33	29	28	26.6
33	30	29	26.6
33	31	30	26.6
33	32	31	26.6
33	33	32	26.6
33	34	33	26.6
33	35	34	26.6
33	36	35	26.6
33	37	36	26.6
33	38	37	26.6
33	39	38	26.6
33	40	39	26.6
33	41	40	26.6
33	42	41	26.6
33	43	42	26.6
33	44	43	26.6
33	45	44	26.6
33	46	45	26.6
33	47	46	26.6
33	48	47	26.6
33	49	48	26.6
33	50	49	26.6
33	51	50	27.093510567842
33	52	51	30.222639021832
33	53	52	35.795189140751
33	54	53	43.446492247014
33	55	54	53.225211075722
33	56	55	64.904791176107
33	57	56	76.233910277522
33	58	57	88.178070507646
33	59	58	99.634715566851
33	60	59	111.7157911094
33	61	60	123.72052094429
33	62	61	135.62428931356
33	63	62	146.75241315899
33	64	63	158.22692574221
33	65	64	169.98925958508
33	66	65	181.74772562458
33	67	66	192.79830239399
33	68	67	204.03779465476
33	69	68	215.75496169497
33	70	69	227.50683754722
33	71	70	239.05142913055
33	72	71	250.81465054693
33	73	72	262.83926360009
33	74	73	273.80643351233
33	75	74	286.03881446625
33	76	75	297.85869052045
33	77	76	309.19655128796
33	78	77	317.04843774866
33	79	78	320.6950583172
33	80	79	323.35308377911
33	81	80	323.4
33	82	81	323.4
33	83	82	323.4
33	84	83	323.4
33	85	84	323.4
33	86	85	323.4
33	87	86	323.4
33	88	87	323.4
33	89	88	323.4
33	90	89	323.4
33	91	90	323.4
33	92	91	323.4
33	93	92	323.4
33	94	93	323.4
33	95	94	323.4
33	96	95	323.4
33	97	96	323.4
33	98	97	323.4
33	99	98	323.4
33	100	99	323.4
33	101	100	323.4
33	102	101	323.4
33	103	102	323.4
33	104	103	323.4
33	105	104	323.4
33	106	105	323.4
33	107	106	323.4
33	108	107	323.4
33	109	108	322.77586847097
33	110	109	320.65698366799
33	111	110	316.21325718524
33	112	111	309.6557061392
33	113	112	301.26821126581
33	114	113	290.74342010713
33	115	114	279.36733158844
33	116	115	267.47771524407
33	117	116	256.40471702504
33	118	117	244.27733526035
33	119	118	232.64210467501
33	120	119	220.56912140925
33	121	120	208.59928498933
33	122	121	196.70822235564
33	123	122	184.58704742026
33	124	123	173.14700060413
33	125	124	161.14535921835
33	126	125	149.25006705406
33	127	126	139.28381776549
33	128	127	132.7100979174
33	129	128	128.15923497737
33	130	129	126.6
33	131	130	126.6
33	132	131	126.6
33	133	132	126.6
33	134	133	126.6
33	135	134	126.6
33	136	135	126.6
33	137	136	126.6
33	138	137	126.6
33	139	138	126.6
33	140	139	126.6
33	141	140	126.6
33	142	141	126.6
33	143	142	126.6
33	144	143	126.6
33	145	144	126.6
33	146	145	126.6
33	147	146	126.6
32	22	21	33.3
32	23	22	35.296456682775
32	24	23	39.613332579285
32	25	24	45.949334340426
32	26	25	54.728193727182
32	27	26	64.914060003334
32	28	27	76.927318975554
32	29	28	88.836556915061
32	30	29	100.93252096339
32	31	30	112.13117843616
32	32	31	124.32059182521
32	33	32	135.45689792507
32	34	33	146.59990218898
32	35	34	158.8215540377
32	36	35	169.94733535398
32	37	36	181.933427167
32	38	37	194.13313440369
32	39	38	205.55124919715
32	40	39	217.10023141484
32	41	40	228.58972318701
32	42	41	239.91872593164
32	43	42	251.56178092213
32	44	43	263.4458714302
32	45	44	274.87651699243
32	46	45	286.4468838584
32	47	46	298.50304185939
32	48	47	310.04494591122
32	49	48	317.08684996305
32	50	49	320.67638406092
32	51	50	323.05610634071
32	52	51	323.4
32	53	52	323.4
32	54	53	323.4
32	55	54	323.4
32	56	55	323.4
32	57	56	323.4
32	58	57	323.4
32	59	58	323.4
32	60	59	323.4
32	61	60	323.4
32	62	61	323.4
32	63	62	323.4
32	64	63	323.4
32	65	64	323.4
32	66	65	323.4
32	67	66	323.4
32	68	67	323.4
32	69	68	323.4
32	70	69	323.4
32	71	70	323.4
32	72	71	323.4
32	73	72	323.4
32	74	73	323.4
32	75	74	323.4
32	76	75	323.4
32	77	76	323.4
32	78	77	323.4
32	79	78	323.4
32	80	79	322.12841354623
32	81	80	319.1912100999
32	82	81	314.13867056012
32	83	82	307.22038264695
32	84	83	298.29066155438
32	85	84	287.40732136683
32	86	85	276.18086265208
32	87	86	264.06292610673
32	88	87	252.57918125698
32	89	88	240.90022221749
32	90	89	229.53643890511
32	91	90	217.44358816347
32	92	91	205.18419834313
32	93	92	194.17044430326
32	94	93	182.6930894925
32	95	94	171.34336720706
32	96	95	159.60563230616
32	97	96	147.46347610271
32	98	97	136.38027101956
32	99	98	125.32205264395
32	100	99	113.38790973923
32	101	100	101.1649315741
32	102	101	89.794167187689
32	103	102	77.697003784127
32	104	103	66.006678848283
32	105	104	54.988897150122
32	106	105	43.838225664831
32	107	106	34.081888004848
32	108	107	28.825550344866
32	109	108	26.865521082583
32	110	109	26.6
32	111	110	26.6
32	112	111	26.6
32	113	112	26.6
32	114	113	26.6
32	115	114	26.6
32	116	115	26.6
32	117	116	26.6
32	118	117	26.6
32	119	118	26.6
32	120	119	26.6
32	121	120	26.6
32	122	121	26.6
32	123	122	26.6
32	124	123	26.6
32	125	124	26.6
32	126	125	26.6
32	127	126	26.6
32	128	127	26.6
32	129	128	27.904459013576
32	130	129	33.021226777642
32	131	130	40.904775307955
32	132	131	50.20114521096
32	133	132	62.051056563353
32	134	133	73.578688267784
32	135	134	85.21380721088
32	136	135	96.63025052758
32	137	136	107.45554880083
32	138	137	114.18987214256
32	139	138	122.25625135629
32	140	139	132.51747403846
32	141	140	144.31961700934
32	142	141	156.34309341284
32	143	142	168.60745870583
32	144	143	180.45048096864
32	145	144	192.62913674913
32	146	145	204.62793897232
32	147	146	215.71023847039
43	29	28	3.1440508495427
43	30	29	4.6117456526674
43	31	30	6.8456328224382
43	32	31	5.6899780989251
43	33	32	8.9756097909226
43	34	33	7.5502833425257
43	35	34	4.8243891274803
43	36	35	4.0284078846964
43	37	36	2.8154327874633
43	38	37	1.660915909545
43	39	38	3.28165167222
43	40	39	3.013594660963
43	41	40	0.973
43	42	41	0.973
43	43	42	0.973
43	44	43	2.4898899389663
43	45	44	0.973
43	46	45	0.973
43	47	46	1.3350869734018
43	48	47	3.9565283170445
43	49	48	0.973
43	50	49	0.973
43	51	50	0.973
43	52	51	0.973
43	53	52	1.5190588953976
43	54	53	1.7904145143049
43	55	54	0.973
43	56	55	3.2079227208207
43	57	56	4.001721979189
43	58	57	6.6381262265337
43	59	58	7.9161646737223
43	60	59	8.5310306333576
43	61	60	8.9910490930689
43	62	61	4.4595865530182
43	63	62	0.973
43	64	63	0.973
43	65	64	0.973
43	66	65	1.9846168467577
43	67	66	3.6914162212503
43	68	67	0.973
43	69	68	4.5146191102419
43	70	69	3.1897895044827
43	71	70	0.973
43	72	71	1.4509731117857
43	73	72	0.973
43	74	73	3.0699431399199
43	75	74	0.973
43	76	75	8.0302235487769
43	77	76	0.973
43	78	77	0.973
43	79	78	0.973
43	80	79	0.973
43	81	80	1.3187318950692
43	82	81	0.973
43	83	82	2.9467474340093
43	84	83	0.973
43	85	84	4.5597155534614
43	86	85	5.262400788182
43	87	86	7.336330252801
43	88	87	6.743713781383
43	89	88	8.0152510166712
43	90	89	5.002969520241
43	91	90	0.973
43	92	91	1.9442166096447
43	93	92	1.4107980297374
43	94	93	0.973
43	95	94	6.0628620249643
43	96	95	0.973
43	97	96	2.9795402033495
43	98	97	2.4711237837112
43	99	98	0.973
43	100	99	4.12505203438
43	101	100	1.4470797940756
43	102	101	4.0877723249816
43	103	102	0.973
43	104	103	2.5566743686341
43	105	104	2.3450079768737
43	106	105	1.2680608966477
43	107	106	0.973
43	108	107	0.973
43	109	108	0.973
43	110	109	0.973
43	111	110	0.973
43	112	111	3.4340275058128
43	113	112	0.973
43	114	113	3.1306765025083
43	115	114	6.0931543560119
43	116	115	4.8337249898573
43	117	116	6.0044049262542
43	118	117	8.79423242516
43	119	118	7.2367582675246
43	120	119	0.973
43	121	120	3.3064936846439
43	122	121	0.973
43	123	122	2.5436676132252
43	124	123	0.973
43	125	124	0.973
43	126	125	2.8264339944836
43	127	126	4.4600045050787
43	128	127	0.973
43	129	128	0.973
43	130	129	0.973
43	131	130	1.2468806748175
43	132	131	5.4727277519715
43	133	132	0.973
43	134	133	4.5812359856747
43	135	134	5.7456427025826
43	136	135	7.9015454110995
43	137	136	6.1534873641193
43	138	137	0.973
43	139	138	0.973
43	140	139	1.5301109199265
43	141	140	0.973
43	142	141	5.1497171349641
43	143	142	5.7821201548754
43	144	143	8.2033775903782
43	145	144	8.601645187537
43	146	145	7.6319662036949
43	147	146	6.9522601004476
43	148	147	0.973
43	149	148	3.7072252345435
42	29	28	1.9863748865668
42	30	29	2.1910636465298
42	31	30	2.5438195437426
42	32	31	1.6218216077657
42	33	32	2.3406288664555
42	34	33	1.6105171675328
42	35	34	0.7486026382205
42	36	35	0.4951619816944
42	37	36	0.16167982663028
42	38	37	-0.14306765391957
42	39	38	0.27932210881263
42	40	39	0.19973515169695
42	41	40	-0.59995942277452
42	42	41	-1.2212652115819
42	43	42	-0.6301306279353
42	44	43	0.15002709996362
42	45	44	-0.53144598284537
42	46	45	-1.1454771237926
42	47	46	-0.17356055950209
42	48	47	0.69017977859873
42	49	48	-0.79940819312011
42	50	49	-4.5
42	51	50	-2.9387570474863
42	52	51	-1.041473963349
42	53	52	0.28785563580854
42	54	53	0.50791705011271
42	55	54	-0.44125865607057
42	56	55	1.5199180820258
42	57	56	1.5938089048723
42	58	57	2.3301817735191
42	59	58	2.2676767182536
42	60	59	2.0517273191595
42	61	60	1.8708733819891
42	62	61	0.58823145018665
42	63	62	-1.0086701678787
42	64	63	-1.2595350403612
42	65	64	-1.3233319807359
42	66	65	0.040783808819551
42	67	66	0.57679102128004
42	68	67	-1.7762908301744
42	69	68	0.93099443521601
42	70	69	0.43978105585723
42	71	70	-0.52846193010031
42	72	71	-0.13162337111028
42	73	72	-0.64448099773655
42	74	73	0.45584467967321
42	75	74	-0.57458620429939
42	76	75	1.9628905122791
42	77	76	-0.53656611467905
42	78	77	-1.1398018199079
42	79	78	-2.9927190794492
42	80	79	-4.3108331137997
42	81	80	0.01432958419449
42	82	81	-1.4290331170623
42	83	82	1.6358454443782
42	84	83	-0.67438995062839
42	85	84	2.2800970564131
42	86	85	2.0018354399828
42	87	86	2.3264709329465
42	88	87	1.7278444553493
42	89	88	1.830940784514
42	90	89	0.83631981723976
42	91	90	-0.79906024799981
42	92	91	-0.017950683970616
42	93	92	-0.1770776916344
42	94	93	-2.5674862952386
42	95	94	1.4105896164287
42	96	95	-0.92553847418346
42	97	96	0.40431267309348
42	98	97	0.2148974215371
42	99	98	-1.1722110577321
42	100	99	0.82098782943113
42	101	100	-0.12976066732148
42	102	101	0.74860525427652
42	103	102	-0.73314298119219
42	104	103	0.25528587054579
42	105	104	0.17298843725198
42	106	105	-0.19758964951874
42	107	106	-0.81194116006933
42	108	107	-1.8565128222006
42	109	108	-3.1890941907768
42	110	109	-2.9309074304248
42	111	110	-0.5793134067554
42	112	111	1.9875651767978
42	113	112	-0.91635576800909
42	114	113	1.4814750483027
42	115	114	2.537011836539
42	116	115	1.488761894661
42	117	116	1.6637217743089
42	118	117	2.215234525362
42	119	118	1.4918493645964
42	120	119	-0.55576044614218
42	121	120	0.36632883867489
42	122	121	-1.0800821389321
42	123	122	0.18080160114648
42	124	123	-0.47296614107602
42	125	124	-1.4111072458694
42	126	125	0.35390957496783
42	127	126	0.8441359525202
42	128	127	-2.7533963715798
42	129	128	-3.2884597577387
42	130	129	-1.2163348289969
42	131	130	-0.10180411403401
42	132	131	2.2138213817418
42	133	132	-0.51132044580299
42	134	133	1.4857511598151
42	135	134	1.6695569721051
42	136	135	2.0642401226796
42	137	136	1.288838711409
42	138	137	-0.34596783896529
42	139	138	-4.5
42	140	139	-0.02461713407577
42	141	140	-4.5
42	142	141	2.3847263781354
42	143	142	2.0533409268595
[...]
137	129	128	23.4
137	130	129	23.4
137	131	130	23.4
137	132	131	23.4
137	133	132	23.4
137	134	133	23.4
137	135	134	23.4
137	136	135	23.4
137	137	136	23.4
137	138	137	23.4
137	139	138	25.296926343213
137	140	139	29.589692497955
137	141	140	36.218081537398
137	142	141	44.168815676976
137	143	142	53.749016454732
137	144	143	64.739391043157
137	145	144	77.670679662034
137	146	145	89.176103894799
137	147	146	99.299593057565
137	148	147	110.03187040987
137	149	148	120.59029746625
137	150	149	130.58655774996
137	151	150	140.99733512848
137	152	151	150.57734224173
137	153	152	159.75235960634
137	154	153	169.14564916298
137	155	154	178.53042563521
137	156	155	188.84646497817
137	157	156	197.96311680528
137	158	157	207.30550712129
137	159	158	216.90750364076
137	160	159	227.04186155389
137	161	160	236.68901514049
137	162	161	245.93418644795
137	163	162	256.10626955997
137	164	163	265.37120661515
137	165	164	275.27709563375
137	166	165	283.61802019198
137	167	166	293.17287737334
137	168	167	301.63011060076
137	169	168	306.06429692158
137	170	169	309.6985211673
137	171	170	314.0122791294
137	172	171	317.66407965512
137	173	172	322.81559205804
137	174	173	326.32456203841
137	175	174	326.6
137	176	175	326.6
137	177	176	326.6
137	178	177	326.6
137	179	178	326.6
137	180	179	326.6
137	181	180	326.6
137	182	181	326.6
137	183	182	326.6
137	184	183	326.6
137	185	184	326.6
137	186	185	326.6
137	187	186	326.6
137	188	187	326.6
137	189	188	326.6
137	190	189	326.6
137	191	190	326.6
137	192	191	326.6
137	193	192	326.6
137	194	193	326.6
137	195	194	326.6
137	196	195	326.6
137	197	196	326.6
137	198	197	326.6
137	199	198	326.6
137	200	199	326.6
137	201	200	326.6
137	202	201	326.6
137	203	202	326.6
137	204	203	326.6
137	205	204	326.6
137	206	205	326.6
137	207	206	326.6
137	208	207	325.12439477924
137	209	208	319.99364684679
137	210	209	313.24135064338
137	211	210	305.10789750039
137	212	211	294.71370805996
137	213	212	282.01691009077
137	214	213	270.23649860234
137	215	214	259.12438219705
137	216	215	248.30206355
137	217	216	238.77582358571
137	218	217	229.40483509729
137	219	218	219.5797360879
137	220	219	209.94021809715
137	221	220	200.16766805332
137	222	221	190.57852676899
137	223	222	181.03254829011
137	224	223	171.29443232639
137	225	224	161.97746534016
137	226	225	152.71398116469
137	227	226	142.18324758643
137	228	227	133.06590566988
137	229	228	123.96067887214
137	230	229	114.3982627122
137	231	230	104.87964771154
137	232	231	96.358811418286
137	233	232	87.19380655268
137	234	233	78.288406711284
137	235	234	69.48665059319
137	236	235	61.195063195018
137	237	236	51.371303390756
137	238	237	39.465134492251
148	104	103	2.4016879553817
148	105	104	3.1187896871318
148	106	105	4.9680842802027
148	107	106	7.2867284922446
148	108	107	6.0249768008372
148	109	108	9.4747190091977
148	110	109	5.1222470922971
148	111	110	0.973
148	112	111	0.973
148	113	112	6.1362856249128
148	114	113	5.5567078617601
148	115	114	5.1355814419318
148	116	115	9.72124333663
148	117	116	11.251685285823
148	118	117	0.973
148	119	118	0.973
148	120	119	0.973
148	121	120	0.973
148	122	121	5.7553489494873
148	123	122	5.2312309923195
148	124	123	7.5720052474983
148	125	124	8.8479560790045
148	126	125	9.8489620909681
148	127	126	1.1237456547328
148	128	127	0.973
148	129	128	0.973
148	130	129	0.973
148	131	130	4.9957493801226
148	132	131	0.973
148	133	132	4.4618622755691
148	134	133	0.973
148	135	134	0.973
148	136	135	0.973
148	137	136	0.973
148	138	137	0.973
148	139	138	1.4805774105542
148	140	139	0.973
148	141	140	2.6214134081143
148	142	141	3.9294446771713
148	143	142	0.973
148	144	143	4.6302846133675
148	145	144	6.5982429696683
148	146	145	6.5614959812202
148	147	146	8.0263461855749
148	148	147	0.973
148	149	148	0.973
148	150	149	0.973
148	151	150	1.7668123031665
148	152	151	0.973
148	153	152	1.2049766759434
148	154	153	0.973
148	155	154	2.7493507938821
148	156	155	3.8753646546408
148	157	156	1.8181421975373
148	158	157	0.973
148	159	158	0.973
148	160	159	5.9957962491
148	161	160	1.9681993414262
148	162	161	0.973
148	163	162	0.973
148	164	163	5.8501389827662
148	165	164	0.973
148	166	165	0.973
148	167	166	1.8431826005177
148	168	167	2.5350553046582
148	169	168	0.973
148	170	169	0.973
148	171	170	2.2592962381506
148	172	171	0.973
148	173	172	0.973
148	174	173	3.3723719176624
148	175	174	0.973
148	176	175	3.0029859971645
148	177	176	3.7497601918248
148	178	177	4.3784336525153
148	179	178	6.4279802846094
148	180	179	5.4299274755898
148	181	180	6.8418914051823
148	182	181	0.973
148	183	182	1.8209010626396
148	184	183	2.9250425366447
148	185	184	2.0345738223996
148	186	185	0.973
148	187	186	0.973
148	188	187	0.973
148	189	188	1.8064568653778
148	190	189	3.9162516916193
148	191	190	3.2397601517479
148	192	191	0.973
148	193	192	0.973
148	194	193	4.2015064617323
148	195	194	1.3404270561115
148	196	195	0.973
148	197	196	0.973
148	198	197	3.996286898729
148	199	198	0.973
148	200	199	4.2485676130246
148	201	200	1.7594995718759
148	202	201	0.973
148	203	202	0.973
148	204	203	0.973
148	205	204	0.973
148	206	205	0.973
148	207	206	0.973
148	208	207	5.0219620431649
148	209	208	0.973
148	210	209	3.0568917303261
148	211	210	3.1010525349394
148	212	211	4.6847888789767
148	213	212	5.1342184588061
148	214	213	6.7889212417009
148	215	214	3.4306797442147
148	216	215	0.973
148	217	216	0.973
148	218	217	0.973
148	219	218	3.5525496583031
148	220	219	2.2069654841483
148	221	220	0.973
148	222	221	0.973
148	223	222	1.5459336562451
148	224	223	4.2140112386916
148	225	224	0.973
148	226	225	2.4275894343432
148	227	226	0.973
148	228	227	8.0582187583804
148	229	228	0.973
148	230	229	2.8431547615556
148	231	230	3.0568943027084
148	232	231	0.973
148	233	232	0.973
148	234	233	4.2197580749919
148	235	234	0.973
148	236	235	0.973
148	237	236	0.973
148	238	237	6.5531328687655
148	239	238	9.2321474144552
148	240	239	7.3539999888988
147	104	103	1.4676063341554
147	105	104	1.5454039167846
147	106	105	2.1136378534138
147	107	106	2.5022398521891
147	108	107	1.6112479625735
147	109	108	2.3382076714188
147	110	109	0.89395102924341
147	111	110	-4.5
147	112	111	-4.5
147	113	112	2.4866018221481
147	114	113	1.724189500371
147	115	114	1.3118924039882
147	116	115	2.4446697610198
147	117	116	2.406865785527
147	118	117	-0.76684747353959
147	119	118	-1.9813793521071
147	120	119	-3.4085871495222
147	121	120	-4.1564354076516
147	122	121	2.3175491042435
147	123	122	1.6234732480396
147	124	123	2.1172040345147
147	125	124	2.1180479842937
147	126	125	2.0478470477974
147	127	126	-0.28510312420722
147	128	127	-0.69879594739805
147	129	128	-0.32116249319258
147	130	129	-1.3954602708861
147	131	130	0.90476955199446
147	132	131	-0.86214102291279
147	133	132	0.75241476118383
147	134	133	-1.5707089699322
147	135	134	-3.6411899157143
147	136	135	-1.5391505526702
147	137	136	-1.2676542170259
147	138	137	-0.15198375694355
147	139	138	0.068465491404666
147	140	139	-1.369311357567
147	141	140	1.0120263616942
147	142	141	1.5372411020354
147	143	142	-0.5166970541992
147	144	143	1.6490745400777
147	145	144	2.0697094419971
147	146	145	1.7030251476215
147	147	146	1.8660229742217
147	148	147	-2.1747852731494
147	149	148	-0.24368924048307
147	150	149	-0.40091260444003
147	151	150	0.012817089682734
147	152	151	-0.40701681363989
147	153	152	-0.19939336460931
147	154	153	-1.1853481039554
147	155	154	0.49503300622333
147	156	155	0.88270476802491
147	157	156	0.045714533141236
147	158	157	-1.1000171036547
147	159	158	-0.40857266771105
147	160	159	1.6973608143382
147	161	160	0.094786550724624
147	162	161	-0.85649958607384
147	163	162	-0.8234744337193
147	164	163	1.6309696875177
147	165	164	-0.85108445624267
147	166	165	-0.72056697311286
147	167	166	0.1053648104047
147	168	167	0.39310983363231
147	169	168	-1.1357806926522
147	170	169	-4.3690998463135
147	171	170	0.8011910124656
147	172	171	-0.25052494002073
147	173	172	-1.0160222169533
147	174	173	1.6342622988988
147	175	174	-1.0151377938979
147	176	175	1.2610268450546
147	177	176	1.4069070696899
147	178	177	1.4330380046042
147	179	178	1.9416470047785
147	180	179	1.3173246746883
147	181	180	1.5646813300184
147	182	181	-1.5626270587446
147	183	182	0.0073904871077044
147	184	183	0.38300124903537
147	185	184	0.068114566440748
147	186	185	-1.5430357479655
147	187	186	-0.82727802655358
147	188	187	-0.83277208871479
147	189	188	0.098939142947078
147	190	189	0.95782115934946
147	191	190	0.6116566899064
147	192	191	-1.0667910351119
147	193	192	-0.3183565751727
147	194	193	1.041937462175
147	195	194	-0.14074889999339
147	196	195	-0.82248303199802
147	197	196	-0.77148214474809
147	198	197	1.0497604813802
147	199	198	-0.92434997546942
147	200	199	1.1303083052864
147	201	200	0.045820668723513
147	202	201	-0.32593281354941
147	203	202	-0.46463740501988
147	204	203	-1.5330571898636
147	205	204	-2.4477241923894
147	206	205	-0.24378446880941
147	207	206	-1.2272235469663
147	208	207	2.5442928263452
147	209	208	-1.1328803538685
147	210	209	1.1540108882783
147	211	210	0.98103198435272
147	212	211	1.5338655263874
147	213	212	1.4533194919835
147	214	213	1.7711066766176
147	215	214	0.53355283196634
147	216	215	-1.0041322647286
147	217	216	-0.60619034096493
147	218	217	-1.3984216320166
147	219	218	0.78030529068549
147	220	219	0.20827562487831
147	221	220	-0.64155231151093
147	222	221	-0.37969415782439
147	223	222	-0.033287774434266
147	224	223	1.0310831232189
147	225	224	-0.87954563236101
147	226	225	0.33457395953932
147	227	226	-0.78310795209227
147	228	227	2.3386231382377
147	229	228	-2.5978667041283
147	230	229	0.55772555681185
147	231	230	0.5962988081311
147	232	231	-0.36493347428944
147	233	232	-1.0556462670644
147	234	233	1.1358637782637
147	235	234	-0.25932520524121
147	236	235	-0.70235021365803
147	237	236	-0.29561971853515
147	238	237	1.9861443837639
147	239	238	2.4208244140493
147	240	239	1.5575143779861
146	103	102	1.7385078541934
146	104	103	3.2061141883489
146	105	104	4.7515181051334
146	106	105	6.8651559585473
146	107	106	9.3673958107363
146	108	107	10.97864377331
146	109	108	13.316851444729
146	110	109	14.210802473972
146	111	110	9.7108024739721
146	112	111	5.2108024739721
146	113	112	7.6974042961202
146	114	113	9.4215937964912
146	115	114	10.733486200479
146	116	115	13.178155961499
146	117	116	15.585021747026
146	118	117	14.818174273487
146	119	118	12.836794921379
146	120	119	9.4282077718572
146	121	120	5.2717723642056
146	122	121	7.5893214684491
146	123	122	9.2127947164888
146	124	123	11.329998751003
146	125	124	13.448046735297
146	126	125	15.495893783095
146	127	126	15.210790658887
146	128	127	14.511994711489
146	129	128	14.190832218297
146	130	129	12.795371947411
146	131	130	13.700141499405
146	132	131	12.838000476492
146	133	132	13.590415237676
146	134	133	12.019706267744
146	135	134	8.3785163520297
146	136	135	6.8393657993595
146	137	136	5.5717115823336
146	138	137	5.4197278253901
146	139	138	5.4881933167947
146	140	139	4.1188819592277
146	141	140	5.1309083209219
146	142	141	6.6681494229572
146	143	142	6.151452368758
146	144	143	7.8005269088357
146	145	144	9.8702363508328
146	146	145	11.573261498454
146	147	146	13.439284472676
146	148	147	11.264499199527
146	149	148	11.020809959044
146	150	149	10.619897354604
146	151	150	10.632714444286
146	152	151	10.225697630646
146	153	152	10.026304266037
146	154	153	8.8409561620816
146	155	154	9.335989168305
146	156	155	10.21869393633
146	157	156	10.264408469471
146	158	157	9.1643913658164
146	159	158	8.7558186981053
146	160	159	10.453179512444
146	161	160	10.547966063168
146	162	161	9.6914664770943
146	163	162	8.867992043375
146	164	163	10.498961730893
146	165	164	9.64787727465
146	166	165	8.9273103015371
146	167	166	9.0326751119418
146	168	167	9.4257849455741
146	169	168	8.290004252922
146	170	169	3.9209044066085
146	171	170	4.7220954190741
146	172	171	4.4715704790534
146	173	172	3.4555482621001
146	174	173	5.0898105609989
146	175	174	4.074672767101
146	176	175	5.3356996121556
146	177	176	6.7426066818455
146	178	177	8.1756446864496
146	179	178	10.117291691228
146	180	179	11.434616365916
146	181	180	12.999297695935
146	182	181	11.43667063719
146	183	182	11.444061124298
146	184	183	11.827062373333
146	185	184	11.895176939774
146	186	185	10.352141191808
146	187	186	9.5248631652549
146	188	187	8.6920910765401
146	189	188	8.7910302194872
146	190	189	9.7488513788367
146	191	190	10.360508068743
146	192	191	9.2937170336312
146	193	192	8.9753604584585
146	194	193	10.017297920633
146	195	194	9.8765490206401
146	196	195	9.0540659886421
146	197	196	8.282583843894
146	198	197	9.3323443252742
146	199	198	8.4079943498047
146	200	199	9.5383026550912
146	201	200	9.5841233238147
146	202	201	9.2581905102653
146	203	202	8.7935531052454
146	204	203	7.2604959153818
146	205	204	4.8127717229924
146	206	205	4.568987254183
146	207	206	3.3417637072167
146	208	207	5.8860565335619
146	209	208	4.7531761796934
146	210	209	5.9071870679717
146	211	210	6.8882190523244
146	212	211	8.4220845787118
146	213	212	9.8754040706953
146	214	213	11.646510747313
146	215	214	12.180063579279
146	216	215	11.175931314551
146	217	216	10.569740973586
146	218	217	9.1713193415691
146	219	218	9.9516246322546
146	220	219	10.159900257133
146	221	220	9.518347945622
146	222	221	9.1386537877976
146	223	222	9.1053660133633
146	224	223	10.136449136582
146	225	224	9.2569035042212
146	226	225	9.5914774637605
146	227	226	8.8083695116682
146	228	227	11.146992649906
146	229	228	8.5491259457776
146	230	229	9.1068515025895
146	231	230	9.7031503107206
146	232	231	9.3382168364312
146	233	232	8.2825705693667
146	234	233	9.4184343476304
146	235	234	9.1591091423892
146	236	235	8.4567589287312
146	237	236	8.161139210196
146	238	237	10.14728359396
146	239	238	12.568108008009
146	240	239	14.125622385995
145	102	101	123.4
145	103	102	123.4
145	104	103	123.4
145	105	104	123.4
145	106	105	123.4
145	107	106	123.4
145	108	107	123.4
145	109	108	123.4
145	110	109	123.4
145	111	110	123.4
145	112	111	123.4
145	113	112	123.4
145	114	113	123.4
145	115	114	123.4
145	116	115	123.4
145	117	116	123.4
145	118	117	123.4
145	119	118	123.4
145	120	119	123.4
145	121	120	123.4
145	122	121	124.73629774445
145	123	122	132.6393220744
145	124	123	143.9693208254
145	125	124	157.4173675607
145	126	125	172.91326134379
145	127	126	188.12405200268
145	128	127	202.63604671417
145	129	128	216.82687893247
145	130	129	229.62225087988
145	131	130	243.32239237928
145	132	131	256.16039285577
145	133	132	269.75080809345
145	134	133	281.77051436119
145	135	134	290.14903071322
145	136	135	296.98839651258
145	137	136	302.56010809492
145	138	137	307.97983592031
145	139	138	313.4680292371
145	140	139	317.58691119633
145	141	140	322.70873722183
145	142	141	326.57821330809
145	143	142	326.6
145	144	143	326.6
145	145	144	326.6
145	146	145	326.6
145	147	146	326.6
145	148	147	326.6
145	149	148	326.6
145	150	149	326.6
145	151	150	326.6
145	152	151	326.6
145	153	152	326.6
145	154	153	326.6
145	155	154	326.6
145	156	155	326.6
145	157	156	326.6
145	158	157	326.6
145	159	158	326.6
145	160	159	326.6
145	161	160	326.6
145	162	161	326.6
145	163	162	326.6
145	164	163	326.6
145	165	164	326.6
145	166	165	326.6
145	167	166	326.6
145	168	167	326.6
145	169	168	326.6
145	170	169	326.6
145	171	170	326.6
145	172	171	326.6
145	173	172	326.6
145	174	173	326.6
145	175	174	326.6
145	176	175	326.33063070031
145	177	176	320.89296290345
145	178	177	312.717318217
145	179	178	302.60002652577
145	180	179	291.16541015985
145	181	180	278.16611246392
145	182	181	266.72944182673
145	183	182	255.28538070243
145	184	183	243.4583183291
145	185	184	231.56314138932
145	186	185	221.21100019751
145	187	186	211.68613703226
145	188	187	202.99404595572
145	189	188	194.20301573623
145	190	189	184.4541643574
145	191	190	174.09365628865
145	192	191	164.79993925502
145	193	192	155.82457879656
145	194	193	145.80728087593
145	195	194	135.93073185529
145	196	195	126.87666586665
145	197	196	118.59408202275
145	198	197	109.26173769748
145	199	198	100.85374334767
145	200	199	91.315440692583
145	201	200	81.731317368768
145	202	201	72.473126858503
145	203	202	63.679573753258
145	204	203	56.419077837876
145	205	204	51.606306114884
145	206	205	47.037318860701
145	207	206	43.695555153484
145	208	207	37.809498619922
145	209	208	33.056322440228
145	210	209	27.159534217366
145	211	210	23.4
145	212	211	23.4
145	213	212	23.4
145	214	213	23.4
145	215	214	23.4
145	216	215	23.4
145	217	216	23.4
145	218	217	23.4
145	219	218	23.4
145	220	219	23.4
145	221	220	23.4
145	222	221	23.4
145	223	222	23.4
145	224	223	23.4
145	225	224	23.4
145	226	225	23.4
145	227	226	23.4
145	228	227	23.4
145	229	228	23.4
145	230	229	23.4
145	231	230	23.4
145	232	231	23.4
145	233	232	23.4
145	234	233	23.4
145	235	234	23.4
145	236	235	23.4
145	237	236	23.4
145	238	237	23.4
145	239	238	23.4
145	240	239	23.4
144	102	101	212.7
144	103	102	210.96149214581
144	104	103	207.75537795746
144	105	104	203.00385985232
144	106	105	196.13870389378
144	107	106	186.77130808304
144	108	107	175.79266430973
144	109	108	162.475812865
144	110	109	148.26501039103
144	111	110	138.55420791706
144	112	111	133.34340544309
144	113	112	125.64600114697
144	114	113	116.22440735047
144	115	114	105.49092115
144	116	115	92.312765188496
144	117	116	76.72774344147
144	118	117	61.909569167983
144	119	118	49.072774246604
144	120	119	39.644566474747
144	121	120	34.372794110541
144	122	121	27.039503759253
144	123	122	23.4
144	124	123	23.4
144	125	124	23.4
144	126	125	23.4
144	127	126	23.4
144	128	127	23.4
144	129	128	23.4
144	130	129	23.4
144	131	130	23.4
144	132	131	23.4
144	133	132	23.4
144	134	133	23.4
144	135	134	23.4
144	136	135	23.4
144	137	136	23.4
144	138	137	23.4
144	139	138	23.4
144	140	139	23.4
144	141	140	23.529819603118
144	142	141	28.047493156639
144	143	142	34.197421308966
144	144	143	41.997948217801
144	145	144	51.868184568634
144	146	145	63.441446067089
144	147	146	76.880730539765
144	148	147	88.145229739291
144	149	148	99.166039698335
144	150	149	109.78593705294
144	151	150	120.41865149722
144	152	151	130.64434912787
144	153	152	140.67065339391
144	154	153	149.51160955599
144	155	154	158.84759872429
144	156	155	169.06629266062
144	157	156	179.3307011301
144	158	157	188.49509249591
144	159	158	197.25091119402
144	160	159	207.70409070646
144	161	160	218.25205676963
144	162	161	227.94352324672
144	163	162	236.8115152901
144	164	163	247.31047702099
144	165	164	256.95835429564
144	166	165	265.88566459718
144	167	166	274.91833970912
144	168	167	284.34412465469
144	169	168	292.63412890762
144	170	169	296.55503331422
144	171	170	301.2771287333
144	172	171	305.74869921235
144	173	172	309.20424747445
144	174	173	314.29405803545
144	175	174	318.36873080255
144	176	175	323.68558509783
144	177	176	326.6
144	178	177	326.6
144	179	178	326.6
144	180	179	326.6
144	181	180	326.6
144	182	181	326.6
144	183	182	326.6
144	184	183	326.6
144	185	184	326.6
144	186	185	326.6
144	187	186	326.6
144	188	187	326.6
144	189	188	326.6
144	190	189	326.6
144	191	190	326.6
144	192	191	326.6
144	193	192	326.6
144	194	193	326.6
144	195	194	326.6
144	196	195	326.6
144	197	196	326.6
144	198	197	326.6
144	199	198	326.6
144	200	199	326.6
144	201	200	326.6
144	202	201	326.6
144	203	202	326.6
144	204	203	326.6
144	205	204	326.6
144	206	205	326.6
144	207	206	326.6
144	208	207	326.6
144	209	208	326.6
144	210	209	326.45136203105
144	211	210	321.60091631993
144	212	211	313.17883174122
144	213	212	303.30342767053
144	214	213	291.65691692321
144	215	214	279.47685334393
144	216	215	268.30092202938
144	217	216	257.7311810558
144	218	217	248.55986171423
144	219	218	238.60823708197
144	220	219	228.44833682484
144	221	220	218.92998887922
144	222	221	209.79133509142
144	223	222	200.68596907806
144	224	223	190.54951994148
144	225	224	181.29261643725
144	226	225	171.70113897349
144	227	226	162.89276946183
144	228	227	151.74577681192
144	229	228	143.19665086614
144	230	229	134.08979936355
144	231	230	124.38664905283
144	232	231	115.0484322164
144	233	232	106.76586164703
144	234	233	97.347427299403
144	235	234	88.188318157014
144	236	235	79.731559228283
144	237	236	71.570420018087
144	238	237	61.423136424127
144	239	238	48.855028416118
144	240	239	34.729406030123

