version 3
run Default-0-20250916-08:34:14-11705
attr configname Default
attr datetime 20250916-08:34:14
attr datetimef 20250916-083414
attr experiment Default
attr inifile omnetpp.ini
attr iterationvars ""
attr iterationvarsd ""
attr iterationvarsf ""
attr measurement ""
attr network ComplexNetwork
attr processid 11705
attr repetition 0
attr replication #0
attr resultdir results
attr runnumber 0
attr seedset 0
config image-path ../../../veins-5.3.1/images
config cmdenv-express-mode true
config cmdenv-autoflush true
config cmdenv-status-frequency 1s
config **.cmdenv-log-level info
config image-path ../../images
config network ComplexNetwork
config debug-on-errors true
config print-undisposed true
config sim-time-limit 400s
config **.scalar-recording true
config **.vector-recording true
config *.playgroundSizeX 2500m
config *.playgroundSizeY 2500m
config *.playgroundSizeZ 50m
config *.manager.updateInterval 1s
config *.manager.host "\"localhost\""
config *.manager.port 9999
config *.manager.autoShutdown true
config *.manager.launchConfig "xmldoc(\"ComplexNetwork.launched.xml\")"
config *.manager.trafficLightModuleType "\"org.car2x.veins.nodes.TrafficLight\""
config *.connectionManager.sendDirect true
config *.connectionManager.maxInterfDist 2600m
config *.connectionManager.drawMaxIntfDist false
config *.tls[*].mobility.x 0
config *.tls[*].mobility.y 0
config *.tls[*].mobility.z 3
config *.tls[*].applType "\"org.car2x.veins.modules.application.traci.TraCIDemoTrafficLightApp\""
config *.tls[*].logicType "\"org.car2x.veins.modules.world.traci.trafficLight.logics.TraCITrafficLightSimpleLogic\""
config *.rsu[0].mobility.x 60
config *.rsu[0].mobility.y 60
config *.rsu[0].mobility.z 3
config *.rsu[*].applType "\"MyRSUApp\""
config *.rsu[*].appl.headerLength 80bit
config *.rsu[*].appl.sendBeacons false
config *.rsu[*].appl.dataOnSch false
config *.rsu[*].appl.beaconInterval 4s
config *.rsu[*].appl.beaconUserPriority 7
config *.rsu[*].appl.dataUserPriority 5
config *.rsu[*].nic.phy80211p.antennaOffsetZ 0m
config *.node[*].applType "\"TraCIDemo11p\""
config *.node[*].appl.headerLength 80bit
config *.node[*].appl.sendBeacons false
config *.node[*].appl.dataOnSch false
config *.node[*].appl.beaconInterval 1s
config *.node[*].veinsmobility.x 0
config *.node[*].veinsmobility.y 0
config *.node[*].veinsmobility.z 0
config *.node[*].veinsmobility.setHostSpeed false
config *.node[*0].veinsmobility.accidentCount 0
config *.node[*0].veinsmobility.accidentStart 73s
config *.node[*0].veinsmobility.accidentDuration 50s
config *.**.nic.phy80211p.minPowerLevel -110dBm
config *.**.nic.phy80211p.useNoiseFloor true
config *.**.nic.phy80211p.noiseFloor -98dBm
config *.**.nic.phy80211p.usePropagationDelay true
config *.**.nic.phy80211p.decider "xmldoc(\"config.xml\")"
config *.**.nic.phy80211p.analogueModels "xmldoc(\"config.xml\")"
config *.**.nic.phy80211p.antenna "xmldoc(\"antenna.xml\", \"/root/Antenna[@id='monopole']\")"
config *.node[*].nic.phy80211p.antennaOffsetY 0m
config *.node[*].nic.phy80211p.antennaOffsetZ 1.895m
config *.**.nic.mac1609_4.useServiceChannel false
config *.**.nic.mac1609_4.txPower 20mW
config *.**.nic.mac1609_4.bitrate 6Mbps
config *.obstacles.debug true
config *.annotations.draw true

par ComplexNetwork.node[0].appl typename "\"org.car2x.veins.modules.application.traci.TraCIDemo11p\""
par ComplexNetwork.node[0].appl headerLength 80bit
attr unit bit
par ComplexNetwork.node[0].appl sendBeacons false
par ComplexNetwork.node[0].appl beaconLengthBits 256bit
attr unit bit
par ComplexNetwork.node[0].appl beaconUserPriority 7
par ComplexNetwork.node[0].appl beaconInterval 1s
attr unit s
par ComplexNetwork.node[0].appl dataLengthBits 1024bit
attr unit bit
par ComplexNetwork.node[0].appl dataOnSch false
par ComplexNetwork.node[0].appl dataUserPriority 7
par ComplexNetwork.node[0].appl avoidBeaconSynchronization true
par ComplexNetwork.node[0].appl sendWSA false
par ComplexNetwork.node[0].appl wsaLengthBits 250bit
attr unit bit
par ComplexNetwork.node[0].appl wsaInterval 1s
attr unit s
scalar ComplexNetwork.node[0].appl generatedWSMs 0
scalar ComplexNetwork.node[0].appl receivedWSMs 0
scalar ComplexNetwork.node[0].appl generatedBSMs 0
scalar ComplexNetwork.node[0].appl receivedBSMs 26
scalar ComplexNetwork.node[0].appl generatedWSAs 0
scalar ComplexNetwork.node[0].appl receivedWSAs 0
par ComplexNetwork.node[0].nic.phy80211p typename "\"org.car2x.veins.modules.phy.PhyLayer80211p\""
par ComplexNetwork.node[0].nic.phy80211p recordStats false
par ComplexNetwork.node[0].nic.phy80211p usePropagationDelay true
par ComplexNetwork.node[0].nic.phy80211p noiseFloor -98dBm
attr unit dBm
par ComplexNetwork.node[0].nic.phy80211p useNoiseFloor true
par ComplexNetwork.node[0].nic.phy80211p antenna "<Antenna type=\"SampledAntenna1D\" id=\"monopole\">...</Antenna> at /home/mihirajakuruppu/omnetpp-6.1/workspace/complex-network//antenna.xml:35"
par ComplexNetwork.node[0].nic.phy80211p antennaOffsetX 0m
attr unit m
par ComplexNetwork.node[0].nic.phy80211p antennaOffsetY 0m
attr unit m
par ComplexNetwork.node[0].nic.phy80211p antennaOffsetZ 1.895m
attr unit m
par ComplexNetwork.node[0].nic.phy80211p antennaOffsetYaw 0rad
attr unit rad
par ComplexNetwork.node[0].nic.phy80211p analogueModels "<root>...</root> at /home/mihirajakuruppu/omnetpp-6.1/workspace/complex-network//config.xml:2"
par ComplexNetwork.node[0].nic.phy80211p decider "<root>...</root> at /home/mihirajakuruppu/omnetpp-6.1/workspace/complex-network//config.xml:2"
par ComplexNetwork.node[0].nic.phy80211p minPowerLevel -110dBm
attr unit dBm
par ComplexNetwork.node[0].nic.phy80211p timeRXToTX 0s
attr unit s
par ComplexNetwork.node[0].nic.phy80211p timeRXToSleep 0s
attr unit s
par ComplexNetwork.node[0].nic.phy80211p timeTXToRX 0s
attr unit s
par ComplexNetwork.node[0].nic.phy80211p timeTXToSleep 0s
attr unit s
par ComplexNetwork.node[0].nic.phy80211p timeSleepToRX 0s
attr unit s
par ComplexNetwork.node[0].nic.phy80211p timeSleepToTX 0s
attr unit s
par ComplexNetwork.node[0].nic.phy80211p initialRadioState 0
par ComplexNetwork.node[0].nic.phy80211p radioMinAtt 1
par ComplexNetwork.node[0].nic.phy80211p radioMaxAtt 0
par ComplexNetwork.node[0].nic.phy80211p nbRadioChannels 1
par ComplexNetwork.node[0].nic.phy80211p initialRadioChannel 0
par ComplexNetwork.node[0].nic.phy80211p ccaThreshold -65dBm
attr unit dBm
par ComplexNetwork.node[0].nic.phy80211p collectCollisionStatistics false
par ComplexNetwork.node[0].nic.phy80211p allowTxDuringRx false
scalar ComplexNetwork.node[0].nic.phy80211p busyTime 0.0012419417475728
par ComplexNetwork.node[0].nic.mac1609_4 typename "\"org.car2x.veins.modules.mac.ieee80211p.Mac1609_4\""
par ComplexNetwork.node[0].nic.mac1609_4 notAffectedByHostState false
par ComplexNetwork.node[0].nic.mac1609_4 headerLength 0bit
attr unit bit
par ComplexNetwork.node[0].nic.mac1609_4 address "\"auto\""
par ComplexNetwork.node[0].nic.mac1609_4 useServiceChannel false
par ComplexNetwork.node[0].nic.mac1609_4 serviceChannel 1
par ComplexNetwork.node[0].nic.mac1609_4 bitrate 6000000bps
attr unit bps
par ComplexNetwork.node[0].nic.mac1609_4 syncOffset 0.0003s
attr unit s
par ComplexNetwork.node[0].nic.mac1609_4 txPower 20mW
attr unit mW
par ComplexNetwork.node[0].nic.mac1609_4 queueSize 0
par ComplexNetwork.node[0].nic.mac1609_4 dot11RTSThreshold 12000bit
attr unit bit
par ComplexNetwork.node[0].nic.mac1609_4 dot11ShortRetryLimit 7
par ComplexNetwork.node[0].nic.mac1609_4 dot11LongRetryLimit 4
par ComplexNetwork.node[0].nic.mac1609_4 ackLength 112bit
attr unit bit
par ComplexNetwork.node[0].nic.mac1609_4 useAcks false
par ComplexNetwork.node[0].nic.mac1609_4 frameErrorRate 0
par ComplexNetwork.node[0].nic.mac1609_4 ackErrorRate 0
scalar ComplexNetwork.node[0].nic.mac1609_4 ReceivedUnicastPackets 0
scalar ComplexNetwork.node[0].nic.mac1609_4 ReceivedBroadcasts 26
scalar ComplexNetwork.node[0].nic.mac1609_4 SentPackets 0
scalar ComplexNetwork.node[0].nic.mac1609_4 SentAcknowledgements 0
scalar ComplexNetwork.node[0].nic.mac1609_4 RetriesExceeded 0
scalar ComplexNetwork.node[0].nic.mac1609_4 SNIRLostPackets 0
scalar ComplexNetwork.node[0].nic.mac1609_4 RXTXLostPackets 0
scalar ComplexNetwork.node[0].nic.mac1609_4 TotalLostPackets 0
scalar ComplexNetwork.node[0].nic.mac1609_4 DroppedPacketsInMac 0
scalar ComplexNetwork.node[0].nic.mac1609_4 TooLittleTime 0
scalar ComplexNetwork.node[0].nic.mac1609_4 TimesIntoBackoff 0
scalar ComplexNetwork.node[0].nic.mac1609_4 SlotsBackoff 0
scalar ComplexNetwork.node[0].nic.mac1609_4 NumInternalContention 0
scalar ComplexNetwork.node[0].nic.mac1609_4 totalBusyTime 0.12792
scalar ComplexNetwork.node[0].nic.mac1609_4 retriesExceeded:count 0
attr recordingmode count
attr source org_car2x_veins_modules_mac_sigRetriesExceeded
scalar ComplexNetwork.node[0].nic.mac1609_4 sentAcks:count 0
attr recordingmode count
attr source org_car2x_veins_modules_mac_sigSentAck
scalar ComplexNetwork.node[0].nic.mac1609_4 sentPackets:count 0
attr recordingmode count
attr source org_car2x_veins_modules_mac_sigSentPacket
scalar ComplexNetwork.node[0].nic.mac1609_4 collisions:count 0
attr recordingmode count
attr source org_car2x_veins_modules_mac_sigCollision
scalar ComplexNetwork.node[0].nic.mac1609_4 channelBusy:timeavg 0.0012419417475728
attr recordingmode timeavg
attr source org_car2x_veins_modules_mac_sigChannelBusy
par ComplexNetwork.node[0].nic typename "\"org.car2x.veins.modules.nic.Nic80211p\""
par ComplexNetwork.node[0].nic connectionManagerName "\"connectionManager\""
par ComplexNetwork.node[0].veinsmobility typename "\"org.car2x.veins.modules.mobility.traci.TraCIMobility\""
par ComplexNetwork.node[0].veinsmobility notAffectedByHostState true
par ComplexNetwork.node[0].veinsmobility x 0
par ComplexNetwork.node[0].veinsmobility y 0
par ComplexNetwork.node[0].veinsmobility z 0
par ComplexNetwork.node[0].veinsmobility xOrientation 1
par ComplexNetwork.node[0].veinsmobility yOrientation 0
par ComplexNetwork.node[0].veinsmobility zOrientation 0
par ComplexNetwork.node[0].veinsmobility hostPositionOffset 0m
attr unit m
par ComplexNetwork.node[0].veinsmobility setHostSpeed false
par ComplexNetwork.node[0].veinsmobility accidentCount 0
par ComplexNetwork.node[0].veinsmobility accidentStart 73s
attr unit s
par ComplexNetwork.node[0].veinsmobility accidentDuration 50s
attr unit s
par ComplexNetwork.node[0].veinsmobility accidentInterval "uniform(30s, 60s)"
attr unit s
scalar ComplexNetwork.node[0].veinsmobility startTime 1
scalar ComplexNetwork.node[0].veinsmobility totalTime 102
scalar ComplexNetwork.node[0].veinsmobility stopTime 104
scalar ComplexNetwork.node[0].veinsmobility minSpeed 2.3097215975402
scalar ComplexNetwork.node[0].veinsmobility maxSpeed 15.455276816448
scalar ComplexNetwork.node[0].veinsmobility totalDistance 1253.8687476474
scalar ComplexNetwork.node[0].veinsmobility totalCO2Emission 368.62086944395
par ComplexNetwork.node[0] typename "\"org.car2x.veins.nodes.Car\""
par ComplexNetwork.node[0] applType "\"TraCIDemo11p\""
par ComplexNetwork.node[0] nicType "\"Nic80211p\""
par ComplexNetwork.node[0] veinsmobilityType "\"org.car2x.veins.modules.mobility.traci.TraCIMobility\""
par ComplexNetwork.node[1].appl typename "\"org.car2x.veins.modules.application.traci.TraCIDemo11p\""
par ComplexNetwork.node[1].appl headerLength 80bit
attr unit bit
par ComplexNetwork.node[1].appl sendBeacons false
par ComplexNetwork.node[1].appl beaconLengthBits 256bit
attr unit bit
par ComplexNetwork.node[1].appl beaconUserPriority 7
par ComplexNetwork.node[1].appl beaconInterval 1s
attr unit s
par ComplexNetwork.node[1].appl dataLengthBits 1024bit
attr unit bit
par ComplexNetwork.node[1].appl dataOnSch false
par ComplexNetwork.node[1].appl dataUserPriority 7
par ComplexNetwork.node[1].appl avoidBeaconSynchronization true
par ComplexNetwork.node[1].appl sendWSA false
par ComplexNetwork.node[1].appl wsaLengthBits 250bit
attr unit bit
par ComplexNetwork.node[1].appl wsaInterval 1s
attr unit s
scalar ComplexNetwork.node[1].appl generatedWSMs 0
scalar ComplexNetwork.node[1].appl receivedWSMs 0
scalar ComplexNetwork.node[1].appl generatedBSMs 0
scalar ComplexNetwork.node[1].appl receivedBSMs 28
scalar ComplexNetwork.node[1].appl generatedWSAs 0
scalar ComplexNetwork.node[1].appl receivedWSAs 0
par ComplexNetwork.node[1].nic.phy80211p typename "\"org.car2x.veins.modules.phy.PhyLayer80211p\""
par ComplexNetwork.node[1].nic.phy80211p recordStats false
par ComplexNetwork.node[1].nic.phy80211p usePropagationDelay true
par ComplexNetwork.node[1].nic.phy80211p noiseFloor -98dBm
attr unit dBm
par ComplexNetwork.node[1].nic.phy80211p useNoiseFloor true
par ComplexNetwork.node[1].nic.phy80211p antenna "<Antenna type=\"SampledAntenna1D\" id=\"monopole\">...</Antenna> at /home/mihirajakuruppu/omnetpp-6.1/workspace/complex-network//antenna.xml:35"
par ComplexNetwork.node[1].nic.phy80211p antennaOffsetX 0m
attr unit m
par ComplexNetwork.node[1].nic.phy80211p antennaOffsetY 0m
attr unit m
par ComplexNetwork.node[1].nic.phy80211p antennaOffsetZ 1.895m
attr unit m
par ComplexNetwork.node[1].nic.phy80211p antennaOffsetYaw 0rad
attr unit rad
par ComplexNetwork.node[1].nic.phy80211p analogueModels "<root>...</root> at /home/mihirajakuruppu/omnetpp-6.1/workspace/complex-network//config.xml:2"
par ComplexNetwork.node[1].nic.phy80211p decider "<root>...</root> at /home/mihirajakuruppu/omnetpp-6.1/workspace/complex-network//config.xml:2"
par ComplexNetwork.node[1].nic.phy80211p minPowerLevel -110dBm
attr unit dBm
par ComplexNetwork.node[1].nic.phy80211p timeRXToTX 0s
attr unit s
par ComplexNetwork.node[1].nic.phy80211p timeRXToSleep 0s
attr unit s
par ComplexNetwork.node[1].nic.phy80211p timeTXToRX 0s
attr unit s
par ComplexNetwork.node[1].nic.phy80211p timeTXToSleep 0s
attr unit s
par ComplexNetwork.node[1].nic.phy80211p timeSleepToRX 0s
attr unit s
par ComplexNetwork.node[1].nic.phy80211p timeSleepToTX 0s
attr unit s
par ComplexNetwork.node[1].nic.phy80211p initialRadioState 0
par ComplexNetwork.node[1].nic.phy80211p radioMinAtt 1
par ComplexNetwork.node[1].nic.phy80211p radioMaxAtt 0
par ComplexNetwork.node[1].nic.phy80211p nbRadioChannels 1
par ComplexNetwork.node[1].nic.phy80211p initialRadioChannel 0
par ComplexNetwork.node[1].nic.phy80211p ccaThreshold -65dBm
attr unit dBm
par ComplexNetwork.node[1].nic.phy80211p collectCollisionStatistics false
par ComplexNetwork.node[1].nic.phy80211p allowTxDuringRx false
scalar ComplexNetwork.node[1].nic.phy80211p busyTime 0.0012638532110092
par ComplexNetwork.node[1].nic.mac1609_4 typename "\"org.car2x.veins.modules.mac.ieee80211p.Mac1609_4\""
par ComplexNetwork.node[1].nic.mac1609_4 notAffectedByHostState false
par ComplexNetwork.node[1].nic.mac1609_4 headerLength 0bit
attr unit bit
par ComplexNetwork.node[1].nic.mac1609_4 address "\"auto\""
par ComplexNetwork.node[1].nic.mac1609_4 useServiceChannel false
par ComplexNetwork.node[1].nic.mac1609_4 serviceChannel 1
par ComplexNetwork.node[1].nic.mac1609_4 bitrate 6000000bps
attr unit bps
par ComplexNetwork.node[1].nic.mac1609_4 syncOffset 0.0003s
attr unit s
par ComplexNetwork.node[1].nic.mac1609_4 txPower 20mW
attr unit mW
par ComplexNetwork.node[1].nic.mac1609_4 queueSize 0
par ComplexNetwork.node[1].nic.mac1609_4 dot11RTSThreshold 12000bit
attr unit bit
par ComplexNetwork.node[1].nic.mac1609_4 dot11ShortRetryLimit 7
par ComplexNetwork.node[1].nic.mac1609_4 dot11LongRetryLimit 4
par ComplexNetwork.node[1].nic.mac1609_4 ackLength 112bit
attr unit bit
par ComplexNetwork.node[1].nic.mac1609_4 useAcks false
par ComplexNetwork.node[1].nic.mac1609_4 frameErrorRate 0
par ComplexNetwork.node[1].nic.mac1609_4 ackErrorRate 0
scalar ComplexNetwork.node[1].nic.mac1609_4 ReceivedUnicastPackets 0
scalar ComplexNetwork.node[1].nic.mac1609_4 ReceivedBroadcasts 28
scalar ComplexNetwork.node[1].nic.mac1609_4 SentPackets 0
scalar ComplexNetwork.node[1].nic.mac1609_4 SentAcknowledgements 0
scalar ComplexNetwork.node[1].nic.mac1609_4 RetriesExceeded 0
scalar ComplexNetwork.node[1].nic.mac1609_4 SNIRLostPackets 0
scalar ComplexNetwork.node[1].nic.mac1609_4 RXTXLostPackets 0
scalar ComplexNetwork.node[1].nic.mac1609_4 TotalLostPackets 0
scalar ComplexNetwork.node[1].nic.mac1609_4 DroppedPacketsInMac 0
scalar ComplexNetwork.node[1].nic.mac1609_4 TooLittleTime 0
scalar ComplexNetwork.node[1].nic.mac1609_4 TimesIntoBackoff 0
scalar ComplexNetwork.node[1].nic.mac1609_4 SlotsBackoff 0
scalar ComplexNetwork.node[1].nic.mac1609_4 NumInternalContention 0
scalar ComplexNetwork.node[1].nic.mac1609_4 totalBusyTime 0.13776
scalar ComplexNetwork.node[1].nic.mac1609_4 retriesExceeded:count 0
attr recordingmode count
attr source org_car2x_veins_modules_mac_sigRetriesExceeded
scalar ComplexNetwork.node[1].nic.mac1609_4 sentAcks:count 0
attr recordingmode count
attr source org_car2x_veins_modules_mac_sigSentAck
scalar ComplexNetwork.node[1].nic.mac1609_4 sentPackets:count 0
attr recordingmode count
attr source org_car2x_veins_modules_mac_sigSentPacket
scalar ComplexNetwork.node[1].nic.mac1609_4 collisions:count 0
attr recordingmode count
attr source org_car2x_veins_modules_mac_sigCollision
scalar ComplexNetwork.node[1].nic.mac1609_4 channelBusy:timeavg 0.0012638532110092
attr recordingmode timeavg
attr source org_car2x_veins_modules_mac_sigChannelBusy
par ComplexNetwork.node[1].nic typename "\"org.car2x.veins.modules.nic.Nic80211p\""
par ComplexNetwork.node[1].nic connectionManagerName "\"connectionManager\""
par ComplexNetwork.node[1].veinsmobility typename "\"org.car2x.veins.modules.mobility.traci.TraCIMobility\""
par ComplexNetwork.node[1].veinsmobility notAffectedByHostState true
par ComplexNetwork.node[1].veinsmobility x 0
par ComplexNetwork.node[1].veinsmobility y 0
par ComplexNetwork.node[1].veinsmobility z 0
par ComplexNetwork.node[1].veinsmobility xOrientation 1
par ComplexNetwork.node[1].veinsmobility yOrientation 0
par ComplexNetwork.node[1].veinsmobility zOrientation 0
par ComplexNetwork.node[1].veinsmobility hostPositionOffset 0m
attr unit m
par ComplexNetwork.node[1].veinsmobility setHostSpeed false
par ComplexNetwork.node[1].veinsmobility accidentCount 0
par ComplexNetwork.node[1].veinsmobility accidentStart 41.5315s
attr unit s
par ComplexNetwork.node[1].veinsmobility accidentDuration "uniform(30s, 60s)"
attr unit s
par ComplexNetwork.node[1].veinsmobility accidentInterval "uniform(30s, 60s)"
attr unit s
scalar ComplexNetwork.node[1].veinsmobility startTime 6
scalar ComplexNetwork.node[1].veinsmobility totalTime 108
scalar ComplexNetwork.node[1].veinsmobility stopTime 115
scalar ComplexNetwork.node[1].veinsmobility minSpeed 2.5407174649648
scalar ComplexNetwork.node[1].veinsmobility maxSpeed 14.547827230516
scalar ComplexNetwork.node[1].veinsmobility totalDistance 1261.5069959809
scalar ComplexNetwork.node[1].veinsmobility totalCO2Emission 353.20718084242
par ComplexNetwork.node[1] typename "\"org.car2x.veins.nodes.Car\""
par ComplexNetwork.node[1] applType "\"TraCIDemo11p\""
par ComplexNetwork.node[1] nicType "\"Nic80211p\""
par ComplexNetwork.node[1] veinsmobilityType "\"org.car2x.veins.modules.mobility.traci.TraCIMobility\""
par ComplexNetwork.node[2].appl typename "\"org.car2x.veins.modules.application.traci.TraCIDemo11p\""
par ComplexNetwork.node[2].appl headerLength 80bit
attr unit bit
par ComplexNetwork.node[2].appl sendBeacons false
par ComplexNetwork.node[2].appl beaconLengthBits 256bit
attr unit bit
par ComplexNetwork.node[2].appl beaconUserPriority 7
par ComplexNetwork.node[2].appl beaconInterval 1s
attr unit s
par ComplexNetwork.node[2].appl dataLengthBits 1024bit
attr unit bit
par ComplexNetwork.node[2].appl dataOnSch false
par ComplexNetwork.node[2].appl dataUserPriority 7
par ComplexNetwork.node[2].appl avoidBeaconSynchronization true
par ComplexNetwork.node[2].appl sendWSA false
par ComplexNetwork.node[2].appl wsaLengthBits 250bit
attr unit bit
par ComplexNetwork.node[2].appl wsaInterval 1s
attr unit s
scalar ComplexNetwork.node[2].appl generatedWSMs 0
scalar ComplexNetwork.node[2].appl receivedWSMs 0
scalar ComplexNetwork.node[2].appl generatedBSMs 0
scalar ComplexNetwork.node[2].appl receivedBSMs 28
scalar ComplexNetwork.node[2].appl generatedWSAs 0
scalar ComplexNetwork.node[2].appl receivedWSAs 0
par ComplexNetwork.node[2].nic.phy80211p typename "\"org.car2x.veins.modules.phy.PhyLayer80211p\""
par ComplexNetwork.node[2].nic.phy80211p recordStats false
par ComplexNetwork.node[2].nic.phy80211p usePropagationDelay true
par ComplexNetwork.node[2].nic.phy80211p noiseFloor -98dBm
attr unit dBm
par ComplexNetwork.node[2].nic.phy80211p useNoiseFloor true
par ComplexNetwork.node[2].nic.phy80211p antenna "<Antenna type=\"SampledAntenna1D\" id=\"monopole\">...</Antenna> at /home/mihirajakuruppu/omnetpp-6.1/workspace/complex-network//antenna.xml:35"
par ComplexNetwork.node[2].nic.phy80211p antennaOffsetX 0m
attr unit m
par ComplexNetwork.node[2].nic.phy80211p antennaOffsetY 0m
attr unit m
par ComplexNetwork.node[2].nic.phy80211p antennaOffsetZ 1.895m
attr unit m
par ComplexNetwork.node[2].nic.phy80211p antennaOffsetYaw 0rad
attr unit rad
par ComplexNetwork.node[2].nic.phy80211p analogueModels "<root>...</root> at /home/mihirajakuruppu/omnetpp-6.1/workspace/complex-network//config.xml:2"
par ComplexNetwork.node[2].nic.phy80211p decider "<root>...</root> at /home/mihirajakuruppu/omnetpp-6.1/workspace/complex-network//config.xml:2"
par ComplexNetwork.node[2].nic.phy80211p minPowerLevel -110dBm
attr unit dBm
par ComplexNetwork.node[2].nic.phy80211p timeRXToTX 0s
attr unit s
par ComplexNetwork.node[2].nic.phy80211p timeRXToSleep 0s
attr unit s
par ComplexNetwork.node[2].nic.phy80211p timeTXToRX 0s
attr unit s
par ComplexNetwork.node[2].nic.phy80211p timeTXToSleep 0s
attr unit s
par ComplexNetwork.node[2].nic.phy80211p timeSleepToRX 0s
attr unit s
par ComplexNetwork.node[2].nic.phy80211p timeSleepToTX 0s
attr unit s
par ComplexNetwork.node[2].nic.phy80211p initialRadioState 0
par ComplexNetwork.node[2].nic.phy80211p radioMinAtt 1
par ComplexNetwork.node[2].nic.phy80211p radioMaxAtt 0
par ComplexNetwork.node[2].nic.phy80211p nbRadioChannels 1
par ComplexNetwork.node[2].nic.phy80211p initialRadioChannel 0
par ComplexNetwork.node[2].nic.phy80211p ccaThreshold -65dBm
attr unit dBm
par ComplexNetwork.node[2].nic.phy80211p collectCollisionStatistics false
par ComplexNetwork.node[2].nic.phy80211p allowTxDuringRx false
scalar ComplexNetwork.node[2].nic.phy80211p busyTime 0.0012191150442478
par ComplexNetwork.node[2].nic.mac1609_4 typename "\"org.car2x.veins.modules.mac.ieee80211p.Mac1609_4\""
par ComplexNetwork.node[2].nic.mac1609_4 notAffectedByHostState false
par ComplexNetwork.node[2].nic.mac1609_4 headerLength 0bit
attr unit bit
par ComplexNetwork.node[2].nic.mac1609_4 address "\"auto\""
par ComplexNetwork.node[2].nic.mac1609_4 useServiceChannel false
par ComplexNetwork.node[2].nic.mac1609_4 serviceChannel 1
par ComplexNetwork.node[2].nic.mac1609_4 bitrate 6000000bps
attr unit bps
par ComplexNetwork.node[2].nic.mac1609_4 syncOffset 0.0003s
attr unit s
par ComplexNetwork.node[2].nic.mac1609_4 txPower 20mW
attr unit mW
par ComplexNetwork.node[2].nic.mac1609_4 queueSize 0
par ComplexNetwork.node[2].nic.mac1609_4 dot11RTSThreshold 12000bit
attr unit bit
par ComplexNetwork.node[2].nic.mac1609_4 dot11ShortRetryLimit 7
par ComplexNetwork.node[2].nic.mac1609_4 dot11LongRetryLimit 4
par ComplexNetwork.node[2].nic.mac1609_4 ackLength 112bit
attr unit bit
par ComplexNetwork.node[2].nic.mac1609_4 useAcks false
par ComplexNetwork.node[2].nic.mac1609_4 frameErrorRate 0
par ComplexNetwork.node[2].nic.mac1609_4 ackErrorRate 0
scalar ComplexNetwork.node[2].nic.mac1609_4 ReceivedUnicastPackets 0
scalar ComplexNetwork.node[2].nic.mac1609_4 ReceivedBroadcasts 28
scalar ComplexNetwork.node[2].nic.mac1609_4 SentPackets 0
scalar ComplexNetwork.node[2].nic.mac1609_4 SentAcknowledgements 0
scalar ComplexNetwork.node[2].nic.mac1609_4 RetriesExceeded 0
scalar ComplexNetwork.node[2].nic.mac1609_4 SNIRLostPackets 0
scalar ComplexNetwork.node[2].nic.mac1609_4 RXTXLostPackets 0
scalar ComplexNetwork.node[2].nic.mac1609_4 TotalLostPackets 0
scalar ComplexNetwork.node[2].nic.mac1609_4 DroppedPacketsInMac 0
scalar ComplexNetwork.node[2].nic.mac1609_4 TooLittleTime 0
scalar ComplexNetwork.node[2].nic.mac1609_4 TimesIntoBackoff 0
scalar ComplexNetwork.node[2].nic.mac1609_4 SlotsBackoff 0
scalar ComplexNetwork.node[2].nic.mac1609_4 NumInternalContention 0
scalar ComplexNetwork.node[2].nic.mac1609_4 totalBusyTime 0.13776
scalar ComplexNetwork.node[2].nic.mac1609_4 retriesExceeded:count 0
attr recordingmode count
attr source org_car2x_veins_modules_mac_sigRetriesExceeded
scalar ComplexNetwork.node[2].nic.mac1609_4 sentAcks:count 0
attr recordingmode count
attr source org_car2x_veins_modules_mac_sigSentAck
scalar ComplexNetwork.node[2].nic.mac1609_4 sentPackets:count 0
attr recordingmode count
attr source org_car2x_veins_modules_mac_sigSentPacket
scalar ComplexNetwork.node[2].nic.mac1609_4 collisions:count 0
attr recordingmode count
attr source org_car2x_veins_modules_mac_sigCollision
scalar ComplexNetwork.node[2].nic.mac1609_4 channelBusy:timeavg 0.0012191150442478
attr recordingmode timeavg
attr source org_car2x_veins_modules_mac_sigChannelBusy
par ComplexNetwork.node[2].nic typename "\"org.car2x.veins.modules.nic.Nic80211p\""
par ComplexNetwork.node[2].nic connectionManagerName "\"connectionManager\""
par ComplexNetwork.node[2].veinsmobility typename "\"org.car2x.veins.modules.mobility.traci.TraCIMobility\""
par ComplexNetwork.node[2].veinsmobility notAffectedByHostState true
par ComplexNetwork.node[2].veinsmobility x 0
par ComplexNetwork.node[2].veinsmobility y 0
par ComplexNetwork.node[2].veinsmobility z 0
par ComplexNetwork.node[2].veinsmobility xOrientation 1
par ComplexNetwork.node[2].veinsmobility yOrientation 0
par ComplexNetwork.node[2].veinsmobility zOrientation 0
par ComplexNetwork.node[2].veinsmobility hostPositionOffset 0m
attr unit m
par ComplexNetwork.node[2].veinsmobility setHostSpeed false
par ComplexNetwork.node[2].veinsmobility accidentCount 0
par ComplexNetwork.node[2].veinsmobility accidentStart 32.6139s
attr unit s
par ComplexNetwork.node[2].veinsmobility accidentDuration "uniform(30s, 60s)"
attr unit s
par ComplexNetwork.node[2].veinsmobility accidentInterval "uniform(30s, 60s)"
attr unit s
scalar ComplexNetwork.node[2].veinsmobility startTime 11
scalar ComplexNetwork.node[2].veinsmobility totalTime 112
scalar ComplexNetwork.node[2].veinsmobility stopTime 124
scalar ComplexNetwork.node[2].veinsmobility minSpeed 1.4744299653452
scalar ComplexNetwork.node[2].veinsmobility maxSpeed 14.264455808462
scalar ComplexNetwork.node[2].veinsmobility totalDistance 1256.3730294868
scalar ComplexNetwork.node[2].veinsmobility totalCO2Emission 347.23716087025
par ComplexNetwork.node[2] typename "\"org.car2x.veins.nodes.Car\""
par ComplexNetwork.node[2] applType "\"TraCIDemo11p\""
par ComplexNetwork.node[2] nicType "\"Nic80211p\""
par ComplexNetwork.node[2] veinsmobilityType "\"org.car2x.veins.modules.mobility.traci.TraCIMobility\""
par ComplexNetwork.node[3].appl typename "\"org.car2x.veins.modules.application.traci.TraCIDemo11p\""
par ComplexNetwork.node[3].appl headerLength 80bit
attr unit bit
par ComplexNetwork.node[3].appl sendBeacons false
par ComplexNetwork.node[3].appl beaconLengthBits 256bit
attr unit bit
par ComplexNetwork.node[3].appl beaconUserPriority 7
par ComplexNetwork.node[3].appl beaconInterval 1s
attr unit s
par ComplexNetwork.node[3].appl dataLengthBits 1024bit
attr unit bit
par ComplexNetwork.node[3].appl dataOnSch false
par ComplexNetwork.node[3].appl dataUserPriority 7
par ComplexNetwork.node[3].appl avoidBeaconSynchronization true
par ComplexNetwork.node[3].appl sendWSA false
par ComplexNetwork.node[3].appl wsaLengthBits 250bit
attr unit bit
par ComplexNetwork.node[3].appl wsaInterval 1s
attr unit s
scalar ComplexNetwork.node[3].appl generatedWSMs 0
scalar ComplexNetwork.node[3].appl receivedWSMs 0
scalar ComplexNetwork.node[3].appl generatedBSMs 0
scalar ComplexNetwork.node[3].appl receivedBSMs 29
scalar ComplexNetwork.node[3].appl generatedWSAs 0
scalar ComplexNetwork.node[3].appl receivedWSAs 0
par ComplexNetwork.node[3].nic.phy80211p typename "\"org.car2x.veins.modules.phy.PhyLayer80211p\""
par ComplexNetwork.node[3].nic.phy80211p recordStats false
par ComplexNetwork.node[3].nic.phy80211p usePropagationDelay true
par ComplexNetwork.node[3].nic.phy80211p noiseFloor -98dBm
attr unit dBm
par ComplexNetwork.node[3].nic.phy80211p useNoiseFloor true
par ComplexNetwork.node[3].nic.phy80211p antenna "<Antenna type=\"SampledAntenna1D\" id=\"monopole\">...</Antenna> at /home/mihirajakuruppu/omnetpp-6.1/workspace/complex-network//antenna.xml:35"
par ComplexNetwork.node[3].nic.phy80211p antennaOffsetX 0m
attr unit m
par ComplexNetwork.node[3].nic.phy80211p antennaOffsetY 0m
attr unit m
par ComplexNetwork.node[3].nic.phy80211p antennaOffsetZ 1.895m
attr unit m
par ComplexNetwork.node[3].nic.phy80211p antennaOffsetYaw 0rad
attr unit rad
par ComplexNetwork.node[3].nic.phy80211p analogueModels "<root>...</root> at /home/mihirajakuruppu/omnetpp-6.1/workspace/complex-network//config.xml:2"
par ComplexNetwork.node[3].nic.phy80211p decider "<root>...</root> at /home/mihirajakuruppu/omnetpp-6.1/workspace/complex-network//config.xml:2"
par ComplexNetwork.node[3].nic.phy80211p minPowerLevel -110dBm
attr unit dBm
par ComplexNetwork.node[3].nic.phy80211p timeRXToTX 0s
attr unit s
par ComplexNetwork.node[3].nic.phy80211p timeRXToSleep 0s
attr unit s
par ComplexNetwork.node[3].nic.phy80211p timeTXToRX 0s
attr unit s
par ComplexNetwork.node[3].nic.phy80211p timeTXToSleep 0s
attr unit s
par ComplexNetwork.node[3].nic.phy80211p timeSleepToRX 0s
attr unit s
par ComplexNetwork.node[3].nic.phy80211p timeSleepToTX 0s
attr unit s
par ComplexNetwork.node[3].nic.phy80211p initialRadioState 0
par ComplexNetwork.node[3].nic.phy80211p radioMinAtt 1
par ComplexNetwork.node[3].nic.phy80211p radioMaxAtt 0
par ComplexNetwork.node[3].nic.phy80211p nbRadioChannels 1
par ComplexNetwork.node[3].nic.phy80211p initialRadioChannel 0
par ComplexNetwork.node[3].nic.phy80211p ccaThreshold -65dBm
attr unit dBm
par ComplexNetwork.node[3].nic.phy80211p collectCollisionStatistics false
par ComplexNetwork.node[3].nic.phy80211p allowTxDuringRx false
scalar ComplexNetwork.node[3].nic.phy80211p busyTime 0.0012406956521739
par ComplexNetwork.node[3].nic.mac1609_4 typename "\"org.car2x.veins.modules.mac.ieee80211p.Mac1609_4\""
par ComplexNetwork.node[3].nic.mac1609_4 notAffectedByHostState false
par ComplexNetwork.node[3].nic.mac1609_4 headerLength 0bit
attr unit bit
par ComplexNetwork.node[3].nic.mac1609_4 address "\"auto\""
par ComplexNetwork.node[3].nic.mac1609_4 useServiceChannel false
par ComplexNetwork.node[3].nic.mac1609_4 serviceChannel 1
par ComplexNetwork.node[3].nic.mac1609_4 bitrate 6000000bps
attr unit bps
par ComplexNetwork.node[3].nic.mac1609_4 syncOffset 0.0003s
attr unit s
par ComplexNetwork.node[3].nic.mac1609_4 txPower 20mW
attr unit mW
par ComplexNetwork.node[3].nic.mac1609_4 queueSize 0
par ComplexNetwork.node[3].nic.mac1609_4 dot11RTSThreshold 12000bit
attr unit bit
par ComplexNetwork.node[3].nic.mac1609_4 dot11ShortRetryLimit 7
par ComplexNetwork.node[3].nic.mac1609_4 dot11LongRetryLimit 4
par ComplexNetwork.node[3].nic.mac1609_4 ackLength 112bit
attr unit bit
par ComplexNetwork.node[3].nic.mac1609_4 useAcks false
par ComplexNetwork.node[3].nic.mac1609_4 frameErrorRate 0
par ComplexNetwork.node[3].nic.mac1609_4 ackErrorRate 0
scalar ComplexNetwork.node[3].nic.mac1609_4 ReceivedUnicastPackets 0
scalar ComplexNetwork.node[3].nic.mac1609_4 ReceivedBroadcasts 29
scalar ComplexNetwork.node[3].nic.mac1609_4 SentPackets 0
scalar ComplexNetwork.node[3].nic.mac1609_4 SentAcknowledgements 0
scalar ComplexNetwork.node[3].nic.mac1609_4 RetriesExceeded 0
scalar ComplexNetwork.node[3].nic.mac1609_4 SNIRLostPackets 0
scalar ComplexNetwork.node[3].nic.mac1609_4 RXTXLostPackets 0
scalar ComplexNetwork.node[3].nic.mac1609_4 TotalLostPackets 0
scalar ComplexNetwork.node[3].nic.mac1609_4 DroppedPacketsInMac 0
scalar ComplexNetwork.node[3].nic.mac1609_4 TooLittleTime 0
scalar ComplexNetwork.node[3].nic.mac1609_4 TimesIntoBackoff 0
scalar ComplexNetwork.node[3].nic.mac1609_4 SlotsBackoff 0
scalar ComplexNetwork.node[3].nic.mac1609_4 NumInternalContention 0
scalar ComplexNetwork.node[3].nic.mac1609_4 totalBusyTime 0.14268
scalar ComplexNetwork.node[3].nic.mac1609_4 retriesExceeded:count 0
attr recordingmode count
attr source org_car2x_veins_modules_mac_sigRetriesExceeded
scalar ComplexNetwork.node[3].nic.mac1609_4 sentAcks:count 0
attr recordingmode count
attr source org_car2x_veins_modules_mac_sigSentAck
scalar ComplexNetwork.node[3].nic.mac1609_4 sentPackets:count 0
attr recordingmode count
attr source org_car2x_veins_modules_mac_sigSentPacket
scalar ComplexNetwork.node[3].nic.mac1609_4 collisions:count 0
attr recordingmode count
attr source org_car2x_veins_modules_mac_sigCollision
scalar ComplexNetwork.node[3].nic.mac1609_4 channelBusy:timeavg 0.0012406956521739
attr recordingmode timeavg
attr source org_car2x_veins_modules_mac_sigChannelBusy
par ComplexNetwork.node[3].nic typename "\"org.car2x.veins.modules.nic.Nic80211p\""
par ComplexNetwork.node[3].nic connectionManagerName "\"connectionManager\""
par ComplexNetwork.node[3].veinsmobility typename "\"org.car2x.veins.modules.mobility.traci.TraCIMobility\""
par ComplexNetwork.node[3].veinsmobility notAffectedByHostState true
par ComplexNetwork.node[3].veinsmobility x 0
par ComplexNetwork.node[3].veinsmobility y 0
par ComplexNetwork.node[3].veinsmobility z 0
par ComplexNetwork.node[3].veinsmobility xOrientation 1
par ComplexNetwork.node[3].veinsmobility yOrientation 0
par ComplexNetwork.node[3].veinsmobility zOrientation 0
par ComplexNetwork.node[3].veinsmobility hostPositionOffset 0m
attr unit m
par ComplexNetwork.node[3].veinsmobility setHostSpeed false
par ComplexNetwork.node[3].veinsmobility accidentCount 0
par ComplexNetwork.node[3].veinsmobility accidentStart 45.6143s
attr unit s
par ComplexNetwork.node[3].veinsmobility accidentDuration "uniform(30s, 60s)"
attr unit s
par ComplexNetwork.node[3].veinsmobility accidentInterval "uniform(30s, 60s)"
attr unit s
scalar ComplexNetwork.node[3].veinsmobility startTime 16
scalar ComplexNetwork.node[3].veinsmobility totalTime 114
scalar ComplexNetwork.node[3].veinsmobility stopTime 131
scalar ComplexNetwork.node[3].veinsmobility minSpeed 1.6605673349462
scalar ComplexNetwork.node[3].veinsmobility maxSpeed 14.099441232575
scalar ComplexNetwork.node[3].veinsmobility totalDistance 1261.4763045529
scalar ComplexNetwork.node[3].veinsmobility totalCO2Emission 351.36149696972
par ComplexNetwork.node[3] typename "\"org.car2x.veins.nodes.Car\""
par ComplexNetwork.node[3] applType "\"TraCIDemo11p\""
par ComplexNetwork.node[3] nicType "\"Nic80211p\""
par ComplexNetwork.node[3] veinsmobilityType "\"org.car2x.veins.modules.mobility.traci.TraCIMobility\""
par ComplexNetwork.node[4].appl typename "\"org.car2x.veins.modules.application.traci.TraCIDemo11p\""
par ComplexNetwork.node[4].appl headerLength 80bit
attr unit bit
par ComplexNetwork.node[4].appl sendBeacons false
par ComplexNetwork.node[4].appl beaconLengthBits 256bit
attr unit bit
par ComplexNetwork.node[4].appl beaconUserPriority 7
par ComplexNetwork.node[4].appl beaconInterval 1s
attr unit s
par ComplexNetwork.node[4].appl dataLengthBits 1024bit
attr unit bit
par ComplexNetwork.node[4].appl dataOnSch false
par ComplexNetwork.node[4].appl dataUserPriority 7
par ComplexNetwork.node[4].appl avoidBeaconSynchronization true
par ComplexNetwork.node[4].appl sendWSA false
par ComplexNetwork.node[4].appl wsaLengthBits 250bit
attr unit bit
par ComplexNetwork.node[4].appl wsaInterval 1s
attr unit s
scalar ComplexNetwork.node[4].appl generatedWSMs 0
scalar ComplexNetwork.node[4].appl receivedWSMs 0
scalar ComplexNetwork.node[4].appl generatedBSMs 0
scalar ComplexNetwork.node[4].appl receivedBSMs 32
scalar ComplexNetwork.node[4].appl generatedWSAs 0
scalar ComplexNetwork.node[4].appl receivedWSAs 0
par ComplexNetwork.node[4].nic.phy80211p typename "\"org.car2x.veins.modules.phy.PhyLayer80211p\""
par ComplexNetwork.node[4].nic.phy80211p recordStats false
par ComplexNetwork.node[4].nic.phy80211p usePropagationDelay true
par ComplexNetwork.node[4].nic.phy80211p noiseFloor -98dBm
attr unit dBm
par ComplexNetwork.node[4].nic.phy80211p useNoiseFloor true
par ComplexNetwork.node[4].nic.phy80211p antenna "<Antenna type=\"SampledAntenna1D\" id=\"monopole\">...</Antenna> at /home/mihirajakuruppu/omnetpp-6.1/workspace/complex-network//antenna.xml:35"
par ComplexNetwork.node[4].nic.phy80211p antennaOffsetX 0m
attr unit m
par ComplexNetwork.node[4].nic.phy80211p antennaOffsetY 0m
attr unit m
par ComplexNetwork.node[4].nic.phy80211p antennaOffsetZ 1.895m
attr unit m
par ComplexNetwork.node[4].nic.phy80211p antennaOffsetYaw 0rad
attr unit rad
par ComplexNetwork.node[4].nic.phy80211p analogueModels "<root>...</root> at /home/mihirajakuruppu/omnetpp-6.1/workspace/complex-network//config.xml:2"
par ComplexNetwork.node[4].nic.phy80211p decider "<root>...</root> at /home/mihirajakuruppu/omnetpp-6.1/workspace/complex-network//config.xml:2"
par ComplexNetwork.node[4].nic.phy80211p minPowerLevel -110dBm
attr unit dBm
par ComplexNetwork.node[4].nic.phy80211p timeRXToTX 0s
attr unit s
par ComplexNetwork.node[4].nic.phy80211p timeRXToSleep 0s
attr unit s
par ComplexNetwork.node[4].nic.phy80211p timeTXToRX 0s
attr unit s
par ComplexNetwork.node[4].nic.phy80211p timeTXToSleep 0s
attr unit s
par ComplexNetwork.node[4].nic.phy80211p timeSleepToRX 0s
attr unit s
par ComplexNetwork.node[4].nic.phy80211p timeSleepToTX 0s
attr unit s
par ComplexNetwork.node[4].nic.phy80211p initialRadioState 0
par ComplexNetwork.node[4].nic.phy80211p radioMinAtt 1
par ComplexNetwork.node[4].nic.phy80211p radioMaxAtt 0
par ComplexNetwork.node[4].nic.phy80211p nbRadioChannels 1
par ComplexNetwork.node[4].nic.phy80211p initialRadioChannel 0
par ComplexNetwork.node[4].nic.phy80211p ccaThreshold -65dBm
attr unit dBm
par ComplexNetwork.node[4].nic.phy80211p collectCollisionStatistics false
par ComplexNetwork.node[4].nic.phy80211p allowTxDuringRx false
scalar ComplexNetwork.node[4].nic.phy80211p busyTime 0.0012495238095238
par ComplexNetwork.node[4].nic.mac1609_4 typename "\"org.car2x.veins.modules.mac.ieee80211p.Mac1609_4\""
par ComplexNetwork.node[4].nic.mac1609_4 notAffectedByHostState false
par ComplexNetwork.node[4].nic.mac1609_4 headerLength 0bit
attr unit bit
par ComplexNetwork.node[4].nic.mac1609_4 address "\"auto\""
par ComplexNetwork.node[4].nic.mac1609_4 useServiceChannel false
par ComplexNetwork.node[4].nic.mac1609_4 serviceChannel 1
par ComplexNetwork.node[4].nic.mac1609_4 bitrate 6000000bps
attr unit bps
par ComplexNetwork.node[4].nic.mac1609_4 syncOffset 0.0003s
attr unit s
par ComplexNetwork.node[4].nic.mac1609_4 txPower 20mW
attr unit mW
par ComplexNetwork.node[4].nic.mac1609_4 queueSize 0
par ComplexNetwork.node[4].nic.mac1609_4 dot11RTSThreshold 12000bit
attr unit bit
par ComplexNetwork.node[4].nic.mac1609_4 dot11ShortRetryLimit 7
par ComplexNetwork.node[4].nic.mac1609_4 dot11LongRetryLimit 4
par ComplexNetwork.node[4].nic.mac1609_4 ackLength 112bit
attr unit bit
par ComplexNetwork.node[4].nic.mac1609_4 useAcks false
par ComplexNetwork.node[4].nic.mac1609_4 frameErrorRate 0
par ComplexNetwork.node[4].nic.mac1609_4 ackErrorRate 0
scalar ComplexNetwork.node[4].nic.mac1609_4 ReceivedUnicastPackets 0
scalar ComplexNetwork.node[4].nic.mac1609_4 ReceivedBroadcasts 32
scalar ComplexNetwork.node[4].nic.mac1609_4 SentPackets 0
scalar ComplexNetwork.node[4].nic.mac1609_4 SentAcknowledgements 0
scalar ComplexNetwork.node[4].nic.mac1609_4 RetriesExceeded 0
scalar ComplexNetwork.node[4].nic.mac1609_4 SNIRLostPackets 0
scalar ComplexNetwork.node[4].nic.mac1609_4 RXTXLostPackets 0
scalar ComplexNetwork.node[4].nic.mac1609_4 TotalLostPackets 0
scalar ComplexNetwork.node[4].nic.mac1609_4 DroppedPacketsInMac 0
scalar ComplexNetwork.node[4].nic.mac1609_4 TooLittleTime 0
scalar ComplexNetwork.node[4].nic.mac1609_4 TimesIntoBackoff 0
scalar ComplexNetwork.node[4].nic.mac1609_4 SlotsBackoff 0
scalar ComplexNetwork.node[4].nic.mac1609_4 NumInternalContention 0
scalar ComplexNetwork.node[4].nic.mac1609_4 totalBusyTime 0.15744
scalar ComplexNetwork.node[4].nic.mac1609_4 retriesExceeded:count 0
attr recordingmode count
attr source org_car2x_veins_modules_mac_sigRetriesExceeded
scalar ComplexNetwork.node[4].nic.mac1609_4 sentAcks:count 0
attr recordingmode count
attr source org_car2x_veins_modules_mac_sigSentAck
scalar ComplexNetwork.node[4].nic.mac1609_4 sentPackets:count 0
attr recordingmode count
attr source org_car2x_veins_modules_mac_sigSentPacket
scalar ComplexNetwork.node[4].nic.mac1609_4 collisions:count 0
attr recordingmode count
attr source org_car2x_veins_modules_mac_sigCollision
scalar ComplexNetwork.node[4].nic.mac1609_4 channelBusy:timeavg 0.0012495238095238
attr recordingmode timeavg
attr source org_car2x_veins_modules_mac_sigChannelBusy
par ComplexNetwork.node[4].nic typename "\"org.car2x.veins.modules.nic.Nic80211p\""
par ComplexNetwork.node[4].nic connectionManagerName "\"connectionManager\""
par ComplexNetwork.node[4].veinsmobility typename "\"org.car2x.veins.modules.mobility.traci.TraCIMobility\""
par ComplexNetwork.node[4].veinsmobility notAffectedByHostState true
par ComplexNetwork.node[4].veinsmobility x 0
par ComplexNetwork.node[4].veinsmobility y 0
par ComplexNetwork.node[4].veinsmobility z 0
par ComplexNetwork.node[4].veinsmobility xOrientation 1
par ComplexNetwork.node[4].veinsmobility yOrientation 0
par ComplexNetwork.node[4].veinsmobility zOrientation 0
par ComplexNetwork.node[4].veinsmobility hostPositionOffset 0m
attr unit m
par ComplexNetwork.node[4].veinsmobility setHostSpeed false
par ComplexNetwork.node[4].veinsmobility accidentCount 0
par ComplexNetwork.node[4].veinsmobility accidentStart 52.1075s
attr unit s
par ComplexNetwork.node[4].veinsmobility accidentDuration "uniform(30s, 60s)"
attr unit s
par ComplexNetwork.node[4].veinsmobility accidentInterval "uniform(30s, 60s)"
attr unit s
scalar ComplexNetwork.node[4].veinsmobility startTime 21
scalar ComplexNetwork.node[4].veinsmobility totalTime 125
scalar ComplexNetwork.node[4].veinsmobility stopTime 147
scalar ComplexNetwork.node[4].veinsmobility minSpeed 1.9964566827752
scalar ComplexNetwork.node[4].veinsmobility maxSpeed 12.264365292984
scalar ComplexNetwork.node[4].veinsmobility totalDistance 1264.5884458616
scalar ComplexNetwork.node[4].veinsmobility totalCO2Emission 331.30844713842
par ComplexNetwork.node[4] typename "\"org.car2x.veins.nodes.Car\""
par ComplexNetwork.node[4] applType "\"TraCIDemo11p\""
par ComplexNetwork.node[4] nicType "\"Nic80211p\""
par ComplexNetwork.node[4] veinsmobilityType "\"org.car2x.veins.modules.mobility.traci.TraCIMobility\""
par ComplexNetwork.node[5].appl typename "\"org.car2x.veins.modules.application.traci.TraCIDemo11p\""
par ComplexNetwork.node[5].appl headerLength 80bit
attr unit bit
par ComplexNetwork.node[5].appl sendBeacons false
par ComplexNetwork.node[5].appl beaconLengthBits 256bit
attr unit bit
par ComplexNetwork.node[5].appl beaconUserPriority 7
par ComplexNetwork.node[5].appl beaconInterval 1s
attr unit s
par ComplexNetwork.node[5].appl dataLengthBits 1024bit
attr unit bit
par ComplexNetwork.node[5].appl dataOnSch false
par ComplexNetwork.node[5].appl dataUserPriority 7
par ComplexNetwork.node[5].appl avoidBeaconSynchronization true
par ComplexNetwork.node[5].appl sendWSA false
par ComplexNetwork.node[5].appl wsaLengthBits 250bit
attr unit bit
par ComplexNetwork.node[5].appl wsaInterval 1s
attr unit s
scalar ComplexNetwork.node[5].appl generatedWSMs 0
scalar ComplexNetwork.node[5].appl receivedWSMs 0
scalar ComplexNetwork.node[5].appl generatedBSMs 0
scalar ComplexNetwork.node[5].appl receivedBSMs 31
scalar ComplexNetwork.node[5].appl generatedWSAs 0
scalar ComplexNetwork.node[5].appl receivedWSAs 0
par ComplexNetwork.node[5].nic.phy80211p typename "\"org.car2x.veins.modules.phy.PhyLayer80211p\""
par ComplexNetwork.node[5].nic.phy80211p recordStats false
par ComplexNetwork.node[5].nic.phy80211p usePropagationDelay true
par ComplexNetwork.node[5].nic.phy80211p noiseFloor -98dBm
attr unit dBm
par ComplexNetwork.node[5].nic.phy80211p useNoiseFloor true
par ComplexNetwork.node[5].nic.phy80211p antenna "<Antenna type=\"SampledAntenna1D\" id=\"monopole\">...</Antenna> at /home/mihirajakuruppu/omnetpp-6.1/workspace/complex-network//antenna.xml:35"
par ComplexNetwork.node[5].nic.phy80211p antennaOffsetX 0m
attr unit m
par ComplexNetwork.node[5].nic.phy80211p antennaOffsetY 0m
attr unit m
par ComplexNetwork.node[5].nic.phy80211p antennaOffsetZ 1.895m
attr unit m
par ComplexNetwork.node[5].nic.phy80211p antennaOffsetYaw 0rad
attr unit rad
par ComplexNetwork.node[5].nic.phy80211p analogueModels "<root>...</root> at /home/mihirajakuruppu/omnetpp-6.1/workspace/complex-network//config.xml:2"
par ComplexNetwork.node[5].nic.phy80211p decider "<root>...</root> at /home/mihirajakuruppu/omnetpp-6.1/workspace/complex-network//config.xml:2"
par ComplexNetwork.node[5].nic.phy80211p minPowerLevel -110dBm
attr unit dBm
par ComplexNetwork.node[5].nic.phy80211p timeRXToTX 0s
attr unit s
par ComplexNetwork.node[5].nic.phy80211p timeRXToSleep 0s
attr unit s
par ComplexNetwork.node[5].nic.phy80211p timeTXToRX 0s
attr unit s
par ComplexNetwork.node[5].nic.phy80211p timeTXToSleep 0s
attr unit s
par ComplexNetwork.node[5].nic.phy80211p timeSleepToRX 0s
attr unit s
par ComplexNetwork.node[5].nic.phy80211p timeSleepToTX 0s
attr unit s
par ComplexNetwork.node[5].nic.phy80211p initialRadioState 0
par ComplexNetwork.node[5].nic.phy80211p radioMinAtt 1
par ComplexNetwork.node[5].nic.phy80211p radioMaxAtt 0
par ComplexNetwork.node[5].nic.phy80211p nbRadioChannels 1
par ComplexNetwork.node[5].nic.phy80211p initialRadioChannel 0
par ComplexNetwork.node[5].nic.phy80211p ccaThreshold -65dBm
attr unit dBm
par ComplexNetwork.node[5].nic.phy80211p collectCollisionStatistics false
par ComplexNetwork.node[5].nic.phy80211p allowTxDuringRx false
scalar ComplexNetwork.node[5].nic.phy80211p busyTime 0.00124
par ComplexNetwork.node[5].nic.mac1609_4 typename "\"org.car2x.veins.modules.mac.ieee80211p.Mac1609_4\""
par ComplexNetwork.node[5].nic.mac1609_4 notAffectedByHostState false
par ComplexNetwork.node[5].nic.mac1609_4 headerLength 0bit
attr unit bit
par ComplexNetwork.node[5].nic.mac1609_4 address "\"auto\""
par ComplexNetwork.node[5].nic.mac1609_4 useServiceChannel false
par ComplexNetwork.node[5].nic.mac1609_4 serviceChannel 1
par ComplexNetwork.node[5].nic.mac1609_4 bitrate 6000000bps
attr unit bps
par ComplexNetwork.node[5].nic.mac1609_4 syncOffset 0.0003s
attr unit s
par ComplexNetwork.node[5].nic.mac1609_4 txPower 20mW
attr unit mW
par ComplexNetwork.node[5].nic.mac1609_4 queueSize 0
par ComplexNetwork.node[5].nic.mac1609_4 dot11RTSThreshold 12000bit
attr unit bit
par ComplexNetwork.node[5].nic.mac1609_4 dot11ShortRetryLimit 7
par ComplexNetwork.node[5].nic.mac1609_4 dot11LongRetryLimit 4
par ComplexNetwork.node[5].nic.mac1609_4 ackLength 112bit
attr unit bit
par ComplexNetwork.node[5].nic.mac1609_4 useAcks false
par ComplexNetwork.node[5].nic.mac1609_4 frameErrorRate 0
par ComplexNetwork.node[5].nic.mac1609_4 ackErrorRate 0
scalar ComplexNetwork.node[5].nic.mac1609_4 ReceivedUnicastPackets 0
scalar ComplexNetwork.node[5].nic.mac1609_4 ReceivedBroadcasts 31
scalar ComplexNetwork.node[5].nic.mac1609_4 SentPackets 0
scalar ComplexNetwork.node[5].nic.mac1609_4 SentAcknowledgements 0
scalar ComplexNetwork.node[5].nic.mac1609_4 RetriesExceeded 0
scalar ComplexNetwork.node[5].nic.mac1609_4 SNIRLostPackets 0
scalar ComplexNetwork.node[5].nic.mac1609_4 RXTXLostPackets 0
scalar ComplexNetwork.node[5].nic.mac1609_4 TotalLostPackets 0
scalar ComplexNetwork.node[5].nic.mac1609_4 DroppedPacketsInMac 0
scalar ComplexNetwork.node[5].nic.mac1609_4 TooLittleTime 0
scalar ComplexNetwork.node[5].nic.mac1609_4 TimesIntoBackoff 0
scalar ComplexNetwork.node[5].nic.mac1609_4 SlotsBackoff 0
scalar ComplexNetwork.node[5].nic.mac1609_4 NumInternalContention 0
scalar ComplexNetwork.node[5].nic.mac1609_4 totalBusyTime 0.15252
scalar ComplexNetwork.node[5].nic.mac1609_4 retriesExceeded:count 0
attr recordingmode count
attr source org_car2x_veins_modules_mac_sigRetriesExceeded
scalar ComplexNetwork.node[5].nic.mac1609_4 sentAcks:count 0
attr recordingmode count
attr source org_car2x_veins_modules_mac_sigSentAck
scalar ComplexNetwork.node[5].nic.mac1609_4 sentPackets:count 0
attr recordingmode count
attr source org_car2x_veins_modules_mac_sigSentPacket
scalar ComplexNetwork.node[5].nic.mac1609_4 collisions:count 0
attr recordingmode count
attr source org_car2x_veins_modules_mac_sigCollision
scalar ComplexNetwork.node[5].nic.mac1609_4 channelBusy:timeavg 0.00124
attr recordingmode timeavg
attr source org_car2x_veins_modules_mac_sigChannelBusy
par ComplexNetwork.node[5].nic typename "\"org.car2x.veins.modules.nic.Nic80211p\""
par ComplexNetwork.node[5].nic connectionManagerName "\"connectionManager\""
par ComplexNetwork.node[5].veinsmobility typename "\"org.car2x.veins.modules.mobility.traci.TraCIMobility\""
par ComplexNetwork.node[5].veinsmobility notAffectedByHostState true
par ComplexNetwork.node[5].veinsmobility x 0
par ComplexNetwork.node[5].veinsmobility y 0
par ComplexNetwork.node[5].veinsmobility z 0
par ComplexNetwork.node[5].veinsmobility xOrientation 1
par ComplexNetwork.node[5].veinsmobility yOrientation 0
par ComplexNetwork.node[5].veinsmobility zOrientation 0
par ComplexNetwork.node[5].veinsmobility hostPositionOffset 0m
attr unit m
par ComplexNetwork.node[5].veinsmobility setHostSpeed false
par ComplexNetwork.node[5].veinsmobility accidentCount 0
par ComplexNetwork.node[5].veinsmobility accidentStart 50.9289s
attr unit s
par ComplexNetwork.node[5].veinsmobility accidentDuration "uniform(30s, 60s)"
attr unit s
par ComplexNetwork.node[5].veinsmobility accidentInterval "uniform(30s, 60s)"
attr unit s
scalar ComplexNetwork.node[5].veinsmobility startTime 26
scalar ComplexNetwork.node[5].veinsmobility totalTime 122
scalar ComplexNetwork.node[5].veinsmobility stopTime 149
scalar ComplexNetwork.node[5].veinsmobility minSpeed 1.863619765942
scalar ComplexNetwork.node[5].veinsmobility maxSpeed 15.89927953767
scalar ComplexNetwork.node[5].veinsmobility totalDistance 1262.778449882
scalar ComplexNetwork.node[5].veinsmobility totalCO2Emission 385.17542407744
par ComplexNetwork.node[5] typename "\"org.car2x.veins.nodes.Car\""
par ComplexNetwork.node[5] applType "\"TraCIDemo11p\""
par ComplexNetwork.node[5] nicType "\"Nic80211p\""
par ComplexNetwork.node[5] veinsmobilityType "\"org.car2x.veins.modules.mobility.traci.TraCIMobility\""
par ComplexNetwork.node[6].appl typename "\"org.car2x.veins.modules.application.traci.TraCIDemo11p\""
par ComplexNetwork.node[6].appl headerLength 80bit
attr unit bit
par ComplexNetwork.node[6].appl sendBeacons false
par ComplexNetwork.node[6].appl beaconLengthBits 256bit
attr unit bit
par ComplexNetwork.node[6].appl beaconUserPriority 7
par ComplexNetwork.node[6].appl beaconInterval 1s
attr unit s
par ComplexNetwork.node[6].appl dataLengthBits 1024bit
attr unit bit
par ComplexNetwork.node[6].appl dataOnSch false
par ComplexNetwork.node[6].appl dataUserPriority 7
par ComplexNetwork.node[6].appl avoidBeaconSynchronization true
par ComplexNetwork.node[6].appl sendWSA false
par ComplexNetwork.node[6].appl wsaLengthBits 250bit
attr unit bit
par ComplexNetwork.node[6].appl wsaInterval 1s
attr unit s
scalar ComplexNetwork.node[6].appl generatedWSMs 0
scalar ComplexNetwork.node[6].appl receivedWSMs 0
scalar ComplexNetwork.node[6].appl generatedBSMs 0
scalar ComplexNetwork.node[6].appl receivedBSMs 30
scalar ComplexNetwork.node[6].appl generatedWSAs 0
scalar ComplexNetwork.node[6].appl receivedWSAs 0
par ComplexNetwork.node[6].nic.phy80211p typename "\"org.car2x.veins.modules.phy.PhyLayer80211p\""
par ComplexNetwork.node[6].nic.phy80211p recordStats false
par ComplexNetwork.node[6].nic.phy80211p usePropagationDelay true
par ComplexNetwork.node[6].nic.phy80211p noiseFloor -98dBm
attr unit dBm
par ComplexNetwork.node[6].nic.phy80211p useNoiseFloor true
par ComplexNetwork.node[6].nic.phy80211p antenna "<Antenna type=\"SampledAntenna1D\" id=\"monopole\">...</Antenna> at /home/mihirajakuruppu/omnetpp-6.1/workspace/complex-network//antenna.xml:35"
par ComplexNetwork.node[6].nic.phy80211p antennaOffsetX 0m
attr unit m
par ComplexNetwork.node[6].nic.phy80211p antennaOffsetY 0m
attr unit m
par ComplexNetwork.node[6].nic.phy80211p antennaOffsetZ 1.895m
attr unit m
par ComplexNetwork.node[6].nic.phy80211p antennaOffsetYaw 0rad
attr unit rad
par ComplexNetwork.node[6].nic.phy80211p analogueModels "<root>...</root> at /home/mihirajakuruppu/omnetpp-6.1/workspace/complex-network//config.xml:2"
par ComplexNetwork.node[6].nic.phy80211p decider "<root>...</root> at /home/mihirajakuruppu/omnetpp-6.1/workspace/complex-network//config.xml:2"
par ComplexNetwork.node[6].nic.phy80211p minPowerLevel -110dBm
attr unit dBm
par ComplexNetwork.node[6].nic.phy80211p timeRXToTX 0s
attr unit s
par ComplexNetwork.node[6].nic.phy80211p timeRXToSleep 0s
attr unit s
par ComplexNetwork.node[6].nic.phy80211p timeTXToRX 0s
attr unit s
par ComplexNetwork.node[6].nic.phy80211p timeTXToSleep 0s
attr unit s
par ComplexNetwork.node[6].nic.phy80211p timeSleepToRX 0s
attr unit s
par ComplexNetwork.node[6].nic.phy80211p timeSleepToTX 0s
attr unit s
par ComplexNetwork.node[6].nic.phy80211p initialRadioState 0
par ComplexNetwork.node[6].nic.phy80211p radioMinAtt 1
par ComplexNetwork.node[6].nic.phy80211p radioMaxAtt 0
par ComplexNetwork.node[6].nic.phy80211p nbRadioChannels 1
par ComplexNetwork.node[6].nic.phy80211p initialRadioChannel 0
par ComplexNetwork.node[6].nic.phy80211p ccaThreshold -65dBm
attr unit dBm
par ComplexNetwork.node[6].nic.phy80211p collectCollisionStatistics false
par ComplexNetwork.node[6].nic.phy80211p allowTxDuringRx false
scalar ComplexNetwork.node[6].nic.phy80211p busyTime 0.0012
par ComplexNetwork.node[6].nic.mac1609_4 typename "\"org.car2x.veins.modules.mac.ieee80211p.Mac1609_4\""
par ComplexNetwork.node[6].nic.mac1609_4 notAffectedByHostState false
par ComplexNetwork.node[6].nic.mac1609_4 headerLength 0bit
attr unit bit
par ComplexNetwork.node[6].nic.mac1609_4 address "\"auto\""
par ComplexNetwork.node[6].nic.mac1609_4 useServiceChannel false
par ComplexNetwork.node[6].nic.mac1609_4 serviceChannel 1
par ComplexNetwork.node[6].nic.mac1609_4 bitrate 6000000bps
attr unit bps
par ComplexNetwork.node[6].nic.mac1609_4 syncOffset 0.0003s
attr unit s
par ComplexNetwork.node[6].nic.mac1609_4 txPower 20mW
attr unit mW
par ComplexNetwork.node[6].nic.mac1609_4 queueSize 0
par ComplexNetwork.node[6].nic.mac1609_4 dot11RTSThreshold 12000bit
attr unit bit
par ComplexNetwork.node[6].nic.mac1609_4 dot11ShortRetryLimit 7
par ComplexNetwork.node[6].nic.mac1609_4 dot11LongRetryLimit 4
par ComplexNetwork.node[6].nic.mac1609_4 ackLength 112bit
attr unit bit
par ComplexNetwork.node[6].nic.mac1609_4 useAcks false
par ComplexNetwork.node[6].nic.mac1609_4 frameErrorRate 0
par ComplexNetwork.node[6].nic.mac1609_4 ackErrorRate 0
scalar ComplexNetwork.node[6].nic.mac1609_4 ReceivedUnicastPackets 0
scalar ComplexNetwork.node[6].nic.mac1609_4 ReceivedBroadcasts 30
scalar ComplexNetwork.node[6].nic.mac1609_4 SentPackets 0
scalar ComplexNetwork.node[6].nic.mac1609_4 SentAcknowledgements 0
scalar ComplexNetwork.node[6].nic.mac1609_4 RetriesExceeded 0
scalar ComplexNetwork.node[6].nic.mac1609_4 SNIRLostPackets 0
scalar ComplexNetwork.node[6].nic.mac1609_4 RXTXLostPackets 0
scalar ComplexNetwork.node[6].nic.mac1609_4 TotalLostPackets 0
scalar ComplexNetwork.node[6].nic.mac1609_4 DroppedPacketsInMac 0
scalar ComplexNetwork.node[6].nic.mac1609_4 TooLittleTime 0
scalar ComplexNetwork.node[6].nic.mac1609_4 TimesIntoBackoff 0
scalar ComplexNetwork.node[6].nic.mac1609_4 SlotsBackoff 0
scalar ComplexNetwork.node[6].nic.mac1609_4 NumInternalContention 0
scalar ComplexNetwork.node[6].nic.mac1609_4 totalBusyTime 0.1476
scalar ComplexNetwork.node[6].nic.mac1609_4 retriesExceeded:count 0
attr recordingmode count
attr source org_car2x_veins_modules_mac_sigRetriesExceeded
scalar ComplexNetwork.node[6].nic.mac1609_4 sentAcks:count 0
attr recordingmode count
attr source org_car2x_veins_modules_mac_sigSentAck
scalar ComplexNetwork.node[6].nic.mac1609_4 sentPackets:count 0
attr recordingmode count
attr source org_car2x_veins_modules_mac_sigSentPacket
scalar ComplexNetwork.node[6].nic.mac1609_4 collisions:count 0
attr recordingmode count
attr source org_car2x_veins_modules_mac_sigCollision
scalar ComplexNetwork.node[6].nic.mac1609_4 channelBusy:timeavg 0.0012
attr recordingmode timeavg
attr source org_car2x_veins_modules_mac_sigChannelBusy
par ComplexNetwork.node[6].nic typename "\"org.car2x.veins.modules.nic.Nic80211p\""
par ComplexNetwork.node[6].nic connectionManagerName "\"connectionManager\""
par ComplexNetwork.node[6].veinsmobility typename "\"org.car2x.veins.modules.mobility.traci.TraCIMobility\""
par ComplexNetwork.node[6].veinsmobility notAffectedByHostState true
par ComplexNetwork.node[6].veinsmobility x 0
par ComplexNetwork.node[6].veinsmobility y 0
par ComplexNetwork.node[6].veinsmobility z 0
par ComplexNetwork.node[6].veinsmobility xOrientation 1
par ComplexNetwork.node[6].veinsmobility yOrientation 0
par ComplexNetwork.node[6].veinsmobility zOrientation 0
par ComplexNetwork.node[6].veinsmobility hostPositionOffset 0m
attr unit m
par ComplexNetwork.node[6].veinsmobility setHostSpeed false
par ComplexNetwork.node[6].veinsmobility accidentCount 0
par ComplexNetwork.node[6].veinsmobility accidentStart 53.3504s
attr unit s
par ComplexNetwork.node[6].veinsmobility accidentDuration "uniform(30s, 60s)"
attr unit s
par ComplexNetwork.node[6].veinsmobility accidentInterval "uniform(30s, 60s)"
attr unit s
scalar ComplexNetwork.node[6].veinsmobility startTime 31
scalar ComplexNetwork.node[6].veinsmobility totalTime 122
scalar ComplexNetwork.node[6].veinsmobility stopTime 154
scalar ComplexNetwork.node[6].veinsmobility minSpeed 1.8937502457993
scalar ComplexNetwork.node[6].veinsmobility maxSpeed 13.130899528311
scalar ComplexNetwork.node[6].veinsmobility totalDistance 1262.8760072006
scalar ComplexNetwork.node[6].veinsmobility totalCO2Emission 335.59854333397
par ComplexNetwork.node[6] typename "\"org.car2x.veins.nodes.Car\""
par ComplexNetwork.node[6] applType "\"TraCIDemo11p\""
par ComplexNetwork.node[6] nicType "\"Nic80211p\""
par ComplexNetwork.node[6] veinsmobilityType "\"org.car2x.veins.modules.mobility.traci.TraCIMobility\""
par ComplexNetwork.node[11].appl typename "\"org.car2x.veins.modules.application.traci.TraCIDemo11p\""
par ComplexNetwork.node[11].appl headerLength 80bit
attr unit bit
par ComplexNetwork.node[11].appl sendBeacons false
par ComplexNetwork.node[11].appl beaconLengthBits 256bit
attr unit bit
par ComplexNetwork.node[11].appl beaconUserPriority 7
par ComplexNetwork.node[11].appl beaconInterval 1s
attr unit s
par ComplexNetwork.node[11].appl dataLengthBits 1024bit
attr unit bit
par ComplexNetwork.node[11].appl dataOnSch false
par ComplexNetwork.node[11].appl dataUserPriority 7
par ComplexNetwork.node[11].appl avoidBeaconSynchronization true
par ComplexNetwork.node[11].appl sendWSA false
par ComplexNetwork.node[11].appl wsaLengthBits 250bit
attr unit bit
par ComplexNetwork.node[11].appl wsaInterval 1s
attr unit s
scalar ComplexNetwork.node[11].appl generatedWSMs 0
scalar ComplexNetwork.node[11].appl receivedWSMs 0
scalar ComplexNetwork.node[11].appl generatedBSMs 0
scalar ComplexNetwork.node[11].appl receivedBSMs 30
scalar ComplexNetwork.node[11].appl generatedWSAs 0
scalar ComplexNetwork.node[11].appl receivedWSAs 0
par ComplexNetwork.node[11].nic.phy80211p typename "\"org.car2x.veins.modules.phy.PhyLayer80211p\""
par ComplexNetwork.node[11].nic.phy80211p recordStats false
par ComplexNetwork.node[11].nic.phy80211p usePropagationDelay true
par ComplexNetwork.node[11].nic.phy80211p noiseFloor -98dBm
attr unit dBm
par ComplexNetwork.node[11].nic.phy80211p useNoiseFloor true
par ComplexNetwork.node[11].nic.phy80211p antenna "<Antenna type=\"SampledAntenna1D\" id=\"monopole\">...</Antenna> at /home/mihirajakuruppu/omnetpp-6.1/workspace/complex-network//antenna.xml:35"
par ComplexNetwork.node[11].nic.phy80211p antennaOffsetX 0m
attr unit m
par ComplexNetwork.node[11].nic.phy80211p antennaOffsetY 0m
attr unit m
par ComplexNetwork.node[11].nic.phy80211p antennaOffsetZ 1.895m
attr unit m
par ComplexNetwork.node[11].nic.phy80211p antennaOffsetYaw 0rad
attr unit rad
par ComplexNetwork.node[11].nic.phy80211p analogueModels "<root>...</root> at /home/mihirajakuruppu/omnetpp-6.1/workspace/complex-network//config.xml:2"
par ComplexNetwork.node[11].nic.phy80211p decider "<root>...</root> at /home/mihirajakuruppu/omnetpp-6.1/workspace/complex-network//config.xml:2"
par ComplexNetwork.node[11].nic.phy80211p minPowerLevel -110dBm
attr unit dBm
par ComplexNetwork.node[11].nic.phy80211p timeRXToTX 0s
attr unit s
par ComplexNetwork.node[11].nic.phy80211p timeRXToSleep 0s
attr unit s
par ComplexNetwork.node[11].nic.phy80211p timeTXToRX 0s
attr unit s
par ComplexNetwork.node[11].nic.phy80211p timeTXToSleep 0s
attr unit s
par ComplexNetwork.node[11].nic.phy80211p timeSleepToRX 0s
attr unit s
par ComplexNetwork.node[11].nic.phy80211p timeSleepToTX 0s
attr unit s
par ComplexNetwork.node[11].nic.phy80211p initialRadioState 0
par ComplexNetwork.node[11].nic.phy80211p radioMinAtt 1
par ComplexNetwork.node[11].nic.phy80211p radioMaxAtt 0
par ComplexNetwork.node[11].nic.phy80211p nbRadioChannels 1
par ComplexNetwork.node[11].nic.phy80211p initialRadioChannel 0
par ComplexNetwork.node[11].nic.phy80211p ccaThreshold -65dBm
attr unit dBm
par ComplexNetwork.node[11].nic.phy80211p collectCollisionStatistics false
par ComplexNetwork.node[11].nic.phy80211p allowTxDuringRx false
scalar ComplexNetwork.node[11].nic.phy80211p busyTime 0.00123
par ComplexNetwork.node[11].nic.mac1609_4 typename "\"org.car2x.veins.modules.mac.ieee80211p.Mac1609_4\""
par ComplexNetwork.node[11].nic.mac1609_4 notAffectedByHostState false
par ComplexNetwork.node[11].nic.mac1609_4 headerLength 0bit
attr unit bit
par ComplexNetwork.node[11].nic.mac1609_4 address "\"auto\""
par ComplexNetwork.node[11].nic.mac1609_4 useServiceChannel false
par ComplexNetwork.node[11].nic.mac1609_4 serviceChannel 1
par ComplexNetwork.node[11].nic.mac1609_4 bitrate 6000000bps
attr unit bps
par ComplexNetwork.node[11].nic.mac1609_4 syncOffset 0.0003s
attr unit s
par ComplexNetwork.node[11].nic.mac1609_4 txPower 20mW
attr unit mW
par ComplexNetwork.node[11].nic.mac1609_4 queueSize 0
par ComplexNetwork.node[11].nic.mac1609_4 dot11RTSThreshold 12000bit
attr unit bit
par ComplexNetwork.node[11].nic.mac1609_4 dot11ShortRetryLimit 7
par ComplexNetwork.node[11].nic.mac1609_4 dot11LongRetryLimit 4
par ComplexNetwork.node[11].nic.mac1609_4 ackLength 112bit
attr unit bit
par ComplexNetwork.node[11].nic.mac1609_4 useAcks false
par ComplexNetwork.node[11].nic.mac1609_4 frameErrorRate 0
par ComplexNetwork.node[11].nic.mac1609_4 ackErrorRate 0
scalar ComplexNetwork.node[11].nic.mac1609_4 ReceivedUnicastPackets 0
scalar ComplexNetwork.node[11].nic.mac1609_4 ReceivedBroadcasts 30
scalar ComplexNetwork.node[11].nic.mac1609_4 SentPackets 0
scalar ComplexNetwork.node[11].nic.mac1609_4 SentAcknowledgements 0
scalar ComplexNetwork.node[11].nic.mac1609_4 RetriesExceeded 0
scalar ComplexNetwork.node[11].nic.mac1609_4 SNIRLostPackets 0
scalar ComplexNetwork.node[11].nic.mac1609_4 RXTXLostPackets 0
scalar ComplexNetwork.node[11].nic.mac1609_4 TotalLostPackets 0
scalar ComplexNetwork.node[11].nic.mac1609_4 DroppedPacketsInMac 0
scalar ComplexNetwork.node[11].nic.mac1609_4 TooLittleTime 0
scalar ComplexNetwork.node[11].nic.mac1609_4 TimesIntoBackoff 0
scalar ComplexNetwork.node[11].nic.mac1609_4 SlotsBackoff 0
scalar ComplexNetwork.node[11].nic.mac1609_4 NumInternalContention 0
scalar ComplexNetwork.node[11].nic.mac1609_4 totalBusyTime 0.1476
scalar ComplexNetwork.node[11].nic.mac1609_4 retriesExceeded:count 0
attr recordingmode count
attr source org_car2x_veins_modules_mac_sigRetriesExceeded
scalar ComplexNetwork.node[11].nic.mac1609_4 sentAcks:count 0
attr recordingmode count
attr source org_car2x_veins_modules_mac_sigSentAck
scalar ComplexNetwork.node[11].nic.mac1609_4 sentPackets:count 0
attr recordingmode count
attr source org_car2x_veins_modules_mac_sigSentPacket
scalar ComplexNetwork.node[11].nic.mac1609_4 collisions:count 0
attr recordingmode count
attr source org_car2x_veins_modules_mac_sigCollision
scalar ComplexNetwork.node[11].nic.mac1609_4 channelBusy:timeavg 0.00123
attr recordingmode timeavg
attr source org_car2x_veins_modules_mac_sigChannelBusy
par ComplexNetwork.node[11].nic typename "\"org.car2x.veins.modules.nic.Nic80211p\""
par ComplexNetwork.node[11].nic connectionManagerName "\"connectionManager\""
par ComplexNetwork.node[11].veinsmobility typename "\"org.car2x.veins.modules.mobility.traci.TraCIMobility\""
par ComplexNetwork.node[11].veinsmobility notAffectedByHostState true
par ComplexNetwork.node[11].veinsmobility x 0
par ComplexNetwork.node[11].veinsmobility y 0
par ComplexNetwork.node[11].veinsmobility z 0
par ComplexNetwork.node[11].veinsmobility xOrientation 1
par ComplexNetwork.node[11].veinsmobility yOrientation 0
par ComplexNetwork.node[11].veinsmobility zOrientation 0
par ComplexNetwork.node[11].veinsmobility hostPositionOffset 0m
attr unit m
par ComplexNetwork.node[11].veinsmobility setHostSpeed false
par ComplexNetwork.node[11].veinsmobility accidentCount 0
par ComplexNetwork.node[11].veinsmobility accidentStart 43.6063s
attr unit s
par ComplexNetwork.node[11].veinsmobility accidentDuration "uniform(30s, 60s)"
attr unit s
par ComplexNetwork.node[11].veinsmobility accidentInterval "uniform(30s, 60s)"
attr unit s
scalar ComplexNetwork.node[11].veinsmobility startTime 56
scalar ComplexNetwork.node[11].veinsmobility totalTime 119
scalar ComplexNetwork.node[11].veinsmobility stopTime 176
scalar ComplexNetwork.node[11].veinsmobility minSpeed 1.8839627243113
scalar ComplexNetwork.node[11].veinsmobility maxSpeed 13.113952594398
scalar ComplexNetwork.node[11].veinsmobility totalDistance 1281.8014457295
scalar ComplexNetwork.node[11].veinsmobility totalCO2Emission 334.4534992922
par ComplexNetwork.node[11] typename "\"org.car2x.veins.nodes.Car\""
par ComplexNetwork.node[11] applType "\"TraCIDemo11p\""
par ComplexNetwork.node[11] nicType "\"Nic80211p\""
par ComplexNetwork.node[11] veinsmobilityType "\"org.car2x.veins.modules.mobility.traci.TraCIMobility\""
par ComplexNetwork.node[7].appl typename "\"org.car2x.veins.modules.application.traci.TraCIDemo11p\""
par ComplexNetwork.node[7].appl headerLength 80bit
attr unit bit
par ComplexNetwork.node[7].appl sendBeacons false
par ComplexNetwork.node[7].appl beaconLengthBits 256bit
attr unit bit
par ComplexNetwork.node[7].appl beaconUserPriority 7
par ComplexNetwork.node[7].appl beaconInterval 1s
attr unit s
par ComplexNetwork.node[7].appl dataLengthBits 1024bit
attr unit bit
par ComplexNetwork.node[7].appl dataOnSch false
par ComplexNetwork.node[7].appl dataUserPriority 7
par ComplexNetwork.node[7].appl avoidBeaconSynchronization true
par ComplexNetwork.node[7].appl sendWSA false
par ComplexNetwork.node[7].appl wsaLengthBits 250bit
attr unit bit
par ComplexNetwork.node[7].appl wsaInterval 1s
attr unit s
scalar ComplexNetwork.node[7].appl generatedWSMs 0
scalar ComplexNetwork.node[7].appl receivedWSMs 0
scalar ComplexNetwork.node[7].appl generatedBSMs 0
scalar ComplexNetwork.node[7].appl receivedBSMs 36
scalar ComplexNetwork.node[7].appl generatedWSAs 0
scalar ComplexNetwork.node[7].appl receivedWSAs 0
par ComplexNetwork.node[7].nic.phy80211p typename "\"org.car2x.veins.modules.phy.PhyLayer80211p\""
par ComplexNetwork.node[7].nic.phy80211p recordStats false
par ComplexNetwork.node[7].nic.phy80211p usePropagationDelay true
par ComplexNetwork.node[7].nic.phy80211p noiseFloor -98dBm
attr unit dBm
par ComplexNetwork.node[7].nic.phy80211p useNoiseFloor true
par ComplexNetwork.node[7].nic.phy80211p antenna "<Antenna type=\"SampledAntenna1D\" id=\"monopole\">...</Antenna> at /home/mihirajakuruppu/omnetpp-6.1/workspace/complex-network//antenna.xml:35"
par ComplexNetwork.node[7].nic.phy80211p antennaOffsetX 0m
attr unit m
par ComplexNetwork.node[7].nic.phy80211p antennaOffsetY 0m
attr unit m
par ComplexNetwork.node[7].nic.phy80211p antennaOffsetZ 1.895m
attr unit m
par ComplexNetwork.node[7].nic.phy80211p antennaOffsetYaw 0rad
attr unit rad
par ComplexNetwork.node[7].nic.phy80211p analogueModels "<root>...</root> at /home/mihirajakuruppu/omnetpp-6.1/workspace/complex-network//config.xml:2"
par ComplexNetwork.node[7].nic.phy80211p decider "<root>...</root> at /home/mihirajakuruppu/omnetpp-6.1/workspace/complex-network//config.xml:2"
par ComplexNetwork.node[7].nic.phy80211p minPowerLevel -110dBm
attr unit dBm
par ComplexNetwork.node[7].nic.phy80211p timeRXToTX 0s
attr unit s
par ComplexNetwork.node[7].nic.phy80211p timeRXToSleep 0s
attr unit s
par ComplexNetwork.node[7].nic.phy80211p timeTXToRX 0s
attr unit s
par ComplexNetwork.node[7].nic.phy80211p timeTXToSleep 0s
attr unit s
par ComplexNetwork.node[7].nic.phy80211p timeSleepToRX 0s
attr unit s
par ComplexNetwork.node[7].nic.phy80211p timeSleepToTX 0s
attr unit s
par ComplexNetwork.node[7].nic.phy80211p initialRadioState 0
par ComplexNetwork.node[7].nic.phy80211p radioMinAtt 1
par ComplexNetwork.node[7].nic.phy80211p radioMaxAtt 0
par ComplexNetwork.node[7].nic.phy80211p nbRadioChannels 1
par ComplexNetwork.node[7].nic.phy80211p initialRadioChannel 0
par ComplexNetwork.node[7].nic.phy80211p ccaThreshold -65dBm
attr unit dBm
par ComplexNetwork.node[7].nic.phy80211p collectCollisionStatistics false
par ComplexNetwork.node[7].nic.phy80211p allowTxDuringRx false
scalar ComplexNetwork.node[7].nic.phy80211p busyTime 0.0012386013986014
par ComplexNetwork.node[7].nic.mac1609_4 typename "\"org.car2x.veins.modules.mac.ieee80211p.Mac1609_4\""
par ComplexNetwork.node[7].nic.mac1609_4 notAffectedByHostState false
par ComplexNetwork.node[7].nic.mac1609_4 headerLength 0bit
attr unit bit
par ComplexNetwork.node[7].nic.mac1609_4 address "\"auto\""
par ComplexNetwork.node[7].nic.mac1609_4 useServiceChannel false
par ComplexNetwork.node[7].nic.mac1609_4 serviceChannel 1
par ComplexNetwork.node[7].nic.mac1609_4 bitrate 6000000bps
attr unit bps
par ComplexNetwork.node[7].nic.mac1609_4 syncOffset 0.0003s
attr unit s
par ComplexNetwork.node[7].nic.mac1609_4 txPower 20mW
attr unit mW
par ComplexNetwork.node[7].nic.mac1609_4 queueSize 0
par ComplexNetwork.node[7].nic.mac1609_4 dot11RTSThreshold 12000bit
attr unit bit
par ComplexNetwork.node[7].nic.mac1609_4 dot11ShortRetryLimit 7
par ComplexNetwork.node[7].nic.mac1609_4 dot11LongRetryLimit 4
par ComplexNetwork.node[7].nic.mac1609_4 ackLength 112bit
attr unit bit
par ComplexNetwork.node[7].nic.mac1609_4 useAcks false
par ComplexNetwork.node[7].nic.mac1609_4 frameErrorRate 0
par ComplexNetwork.node[7].nic.mac1609_4 ackErrorRate 0
scalar ComplexNetwork.node[7].nic.mac1609_4 ReceivedUnicastPackets 0
scalar ComplexNetwork.node[7].nic.mac1609_4 ReceivedBroadcasts 36
scalar ComplexNetwork.node[7].nic.mac1609_4 SentPackets 0
scalar ComplexNetwork.node[7].nic.mac1609_4 SentAcknowledgements 0
scalar ComplexNetwork.node[7].nic.mac1609_4 RetriesExceeded 0
scalar ComplexNetwork.node[7].nic.mac1609_4 SNIRLostPackets 0
scalar ComplexNetwork.node[7].nic.mac1609_4 RXTXLostPackets 0
scalar ComplexNetwork.node[7].nic.mac1609_4 TotalLostPackets 0
scalar ComplexNetwork.node[7].nic.mac1609_4 DroppedPacketsInMac 0
scalar ComplexNetwork.node[7].nic.mac1609_4 TooLittleTime 0
scalar ComplexNetwork.node[7].nic.mac1609_4 TimesIntoBackoff 0
scalar ComplexNetwork.node[7].nic.mac1609_4 SlotsBackoff 0
scalar ComplexNetwork.node[7].nic.mac1609_4 NumInternalContention 0
scalar ComplexNetwork.node[7].nic.mac1609_4 totalBusyTime 0.17712
scalar ComplexNetwork.node[7].nic.mac1609_4 retriesExceeded:count 0
attr recordingmode count
attr source org_car2x_veins_modules_mac_sigRetriesExceeded
scalar ComplexNetwork.node[7].nic.mac1609_4 sentAcks:count 0
attr recordingmode count
attr source org_car2x_veins_modules_mac_sigSentAck
scalar ComplexNetwork.node[7].nic.mac1609_4 sentPackets:count 0
attr recordingmode count
attr source org_car2x_veins_modules_mac_sigSentPacket
scalar ComplexNetwork.node[7].nic.mac1609_4 collisions:count 0
attr recordingmode count
attr source org_car2x_veins_modules_mac_sigCollision
scalar ComplexNetwork.node[7].nic.mac1609_4 channelBusy:timeavg 0.0012386013986014
attr recordingmode timeavg
attr source org_car2x_veins_modules_mac_sigChannelBusy
par ComplexNetwork.node[7].nic typename "\"org.car2x.veins.modules.nic.Nic80211p\""
par ComplexNetwork.node[7].nic connectionManagerName "\"connectionManager\""
par ComplexNetwork.node[7].veinsmobility typename "\"org.car2x.veins.modules.mobility.traci.TraCIMobility\""
par ComplexNetwork.node[7].veinsmobility notAffectedByHostState true
par ComplexNetwork.node[7].veinsmobility x 0
par ComplexNetwork.node[7].veinsmobility y 0
par ComplexNetwork.node[7].veinsmobility z 0
par ComplexNetwork.node[7].veinsmobility xOrientation 1
par ComplexNetwork.node[7].veinsmobility yOrientation 0
par ComplexNetwork.node[7].veinsmobility zOrientation 0
par ComplexNetwork.node[7].veinsmobility hostPositionOffset 0m
attr unit m
par ComplexNetwork.node[7].veinsmobility setHostSpeed false
par ComplexNetwork.node[7].veinsmobility accidentCount 0
par ComplexNetwork.node[7].veinsmobility accidentStart 33.6059s
attr unit s
par ComplexNetwork.node[7].veinsmobility accidentDuration "uniform(30s, 60s)"
attr unit s
par ComplexNetwork.node[7].veinsmobility accidentInterval "uniform(30s, 60s)"
attr unit s
scalar ComplexNetwork.node[7].veinsmobility startTime 36
scalar ComplexNetwork.node[7].veinsmobility totalTime 142
scalar ComplexNetwork.node[7].veinsmobility stopTime 179
scalar ComplexNetwork.node[7].veinsmobility minSpeed 1.964976642873
scalar ComplexNetwork.node[7].veinsmobility maxSpeed 10.602593384929
scalar ComplexNetwork.node[7].veinsmobility totalDistance 1261.6019564984
scalar ComplexNetwork.node[7].veinsmobility totalCO2Emission 321.50166627913
par ComplexNetwork.node[7] typename "\"org.car2x.veins.nodes.Car\""
par ComplexNetwork.node[7] applType "\"TraCIDemo11p\""
par ComplexNetwork.node[7] nicType "\"Nic80211p\""
par ComplexNetwork.node[7] veinsmobilityType "\"org.car2x.veins.modules.mobility.traci.TraCIMobility\""
par ComplexNetwork.node[12].appl typename "\"org.car2x.veins.modules.application.traci.TraCIDemo11p\""
par ComplexNetwork.node[12].appl headerLength 80bit
attr unit bit
par ComplexNetwork.node[12].appl sendBeacons false
par ComplexNetwork.node[12].appl beaconLengthBits 256bit
attr unit bit
par ComplexNetwork.node[12].appl beaconUserPriority 7
par ComplexNetwork.node[12].appl beaconInterval 1s
attr unit s
par ComplexNetwork.node[12].appl dataLengthBits 1024bit
attr unit bit
par ComplexNetwork.node[12].appl dataOnSch false
par ComplexNetwork.node[12].appl dataUserPriority 7
par ComplexNetwork.node[12].appl avoidBeaconSynchronization true
par ComplexNetwork.node[12].appl sendWSA false
par ComplexNetwork.node[12].appl wsaLengthBits 250bit
attr unit bit
par ComplexNetwork.node[12].appl wsaInterval 1s
attr unit s
scalar ComplexNetwork.node[12].appl generatedWSMs 0
scalar ComplexNetwork.node[12].appl receivedWSMs 0
scalar ComplexNetwork.node[12].appl generatedBSMs 0
scalar ComplexNetwork.node[12].appl receivedBSMs 30
scalar ComplexNetwork.node[12].appl generatedWSAs 0
scalar ComplexNetwork.node[12].appl receivedWSAs 0
par ComplexNetwork.node[12].nic.phy80211p typename "\"org.car2x.veins.modules.phy.PhyLayer80211p\""
par ComplexNetwork.node[12].nic.phy80211p recordStats false
par ComplexNetwork.node[12].nic.phy80211p usePropagationDelay true
par ComplexNetwork.node[12].nic.phy80211p noiseFloor -98dBm
attr unit dBm
par ComplexNetwork.node[12].nic.phy80211p useNoiseFloor true
par ComplexNetwork.node[12].nic.phy80211p antenna "<Antenna type=\"SampledAntenna1D\" id=\"monopole\">...</Antenna> at /home/mihirajakuruppu/omnetpp-6.1/workspace/complex-network//antenna.xml:35"
par ComplexNetwork.node[12].nic.phy80211p antennaOffsetX 0m
attr unit m
par ComplexNetwork.node[12].nic.phy80211p antennaOffsetY 0m
attr unit m
par ComplexNetwork.node[12].nic.phy80211p antennaOffsetZ 1.895m
attr unit m
par ComplexNetwork.node[12].nic.phy80211p antennaOffsetYaw 0rad
attr unit rad
par ComplexNetwork.node[12].nic.phy80211p analogueModels "<root>...</root> at /home/mihirajakuruppu/omnetpp-6.1/workspace/complex-network//config.xml:2"
par ComplexNetwork.node[12].nic.phy80211p decider "<root>...</root> at /home/mihirajakuruppu/omnetpp-6.1/workspace/complex-network//config.xml:2"
par ComplexNetwork.node[12].nic.phy80211p minPowerLevel -110dBm
attr unit dBm
par ComplexNetwork.node[12].nic.phy80211p timeRXToTX 0s
attr unit s
par ComplexNetwork.node[12].nic.phy80211p timeRXToSleep 0s
attr unit s
par ComplexNetwork.node[12].nic.phy80211p timeTXToRX 0s
attr unit s
par ComplexNetwork.node[12].nic.phy80211p timeTXToSleep 0s
attr unit s
par ComplexNetwork.node[12].nic.phy80211p timeSleepToRX 0s
attr unit s
par ComplexNetwork.node[12].nic.phy80211p timeSleepToTX 0s
attr unit s
par ComplexNetwork.node[12].nic.phy80211p initialRadioState 0
par ComplexNetwork.node[12].nic.phy80211p radioMinAtt 1
par ComplexNetwork.node[12].nic.phy80211p radioMaxAtt 0
par ComplexNetwork.node[12].nic.phy80211p nbRadioChannels 1
par ComplexNetwork.node[12].nic.phy80211p initialRadioChannel 0
par ComplexNetwork.node[12].nic.phy80211p ccaThreshold -65dBm
attr unit dBm
par ComplexNetwork.node[12].nic.phy80211p collectCollisionStatistics false
par ComplexNetwork.node[12].nic.phy80211p allowTxDuringRx false
scalar ComplexNetwork.node[12].nic.phy80211p busyTime 0.0012403361344538
par ComplexNetwork.node[12].nic.mac1609_4 typename "\"org.car2x.veins.modules.mac.ieee80211p.Mac1609_4\""
par ComplexNetwork.node[12].nic.mac1609_4 notAffectedByHostState false
par ComplexNetwork.node[12].nic.mac1609_4 headerLength 0bit
attr unit bit
par ComplexNetwork.node[12].nic.mac1609_4 address "\"auto\""
par ComplexNetwork.node[12].nic.mac1609_4 useServiceChannel false
par ComplexNetwork.node[12].nic.mac1609_4 serviceChannel 1
par ComplexNetwork.node[12].nic.mac1609_4 bitrate 6000000bps
attr unit bps
par ComplexNetwork.node[12].nic.mac1609_4 syncOffset 0.0003s
attr unit s
par ComplexNetwork.node[12].nic.mac1609_4 txPower 20mW
attr unit mW
par ComplexNetwork.node[12].nic.mac1609_4 queueSize 0
par ComplexNetwork.node[12].nic.mac1609_4 dot11RTSThreshold 12000bit
attr unit bit
par ComplexNetwork.node[12].nic.mac1609_4 dot11ShortRetryLimit 7
par ComplexNetwork.node[12].nic.mac1609_4 dot11LongRetryLimit 4
par ComplexNetwork.node[12].nic.mac1609_4 ackLength 112bit
attr unit bit
par ComplexNetwork.node[12].nic.mac1609_4 useAcks false
par ComplexNetwork.node[12].nic.mac1609_4 frameErrorRate 0
par ComplexNetwork.node[12].nic.mac1609_4 ackErrorRate 0
scalar ComplexNetwork.node[12].nic.mac1609_4 ReceivedUnicastPackets 0
scalar ComplexNetwork.node[12].nic.mac1609_4 ReceivedBroadcasts 30
scalar ComplexNetwork.node[12].nic.mac1609_4 SentPackets 0
scalar ComplexNetwork.node[12].nic.mac1609_4 SentAcknowledgements 0
scalar ComplexNetwork.node[12].nic.mac1609_4 RetriesExceeded 0
scalar ComplexNetwork.node[12].nic.mac1609_4 SNIRLostPackets 0
scalar ComplexNetwork.node[12].nic.mac1609_4 RXTXLostPackets 0
scalar ComplexNetwork.node[12].nic.mac1609_4 TotalLostPackets 0
scalar ComplexNetwork.node[12].nic.mac1609_4 DroppedPacketsInMac 0
scalar ComplexNetwork.node[12].nic.mac1609_4 TooLittleTime 0
scalar ComplexNetwork.node[12].nic.mac1609_4 TimesIntoBackoff 0
scalar ComplexNetwork.node[12].nic.mac1609_4 SlotsBackoff 0
scalar ComplexNetwork.node[12].nic.mac1609_4 NumInternalContention 0
[...]
attr recordingmode count
attr source org_car2x_veins_modules_mac_sigCollision
scalar ComplexNetwork.node[19].nic.mac1609_4 channelBusy:timeavg 0.001212676056338
attr recordingmode timeavg
attr source org_car2x_veins_modules_mac_sigChannelBusy
par ComplexNetwork.node[19].nic typename "\"org.car2x.veins.modules.nic.Nic80211p\""
par ComplexNetwork.node[19].nic connectionManagerName "\"connectionManager\""
par ComplexNetwork.node[19].veinsmobility typename "\"org.car2x.veins.modules.mobility.traci.TraCIMobility\""
par ComplexNetwork.node[19].veinsmobility notAffectedByHostState true
par ComplexNetwork.node[19].veinsmobility x 0
par ComplexNetwork.node[19].veinsmobility y 0
par ComplexNetwork.node[19].veinsmobility z 0
par ComplexNetwork.node[19].veinsmobility xOrientation 1
par ComplexNetwork.node[19].veinsmobility yOrientation 0
par ComplexNetwork.node[19].veinsmobility zOrientation 0
par ComplexNetwork.node[19].veinsmobility hostPositionOffset 0m
attr unit m
par ComplexNetwork.node[19].veinsmobility setHostSpeed false
par ComplexNetwork.node[19].veinsmobility accidentCount 0
par ComplexNetwork.node[19].veinsmobility accidentStart 59.2277s
attr unit s
par ComplexNetwork.node[19].veinsmobility accidentDuration "uniform(30s, 60s)"
attr unit s
par ComplexNetwork.node[19].veinsmobility accidentInterval "uniform(30s, 60s)"
attr unit s
scalar ComplexNetwork.node[19].veinsmobility startTime 96
scalar ComplexNetwork.node[19].veinsmobility totalTime 141
scalar ComplexNetwork.node[19].veinsmobility stopTime 238
scalar ComplexNetwork.node[19].veinsmobility minSpeed 1.868398874742
scalar ComplexNetwork.node[19].veinsmobility maxSpeed 12.931288618877
scalar ComplexNetwork.node[19].veinsmobility totalDistance 1275.6201864067
scalar ComplexNetwork.node[19].veinsmobility totalCO2Emission 362.82210752564
par ComplexNetwork.node[19] typename "\"org.car2x.veins.nodes.Car\""
par ComplexNetwork.node[19] applType "\"TraCIDemo11p\""
par ComplexNetwork.node[19] nicType "\"Nic80211p\""
par ComplexNetwork.node[19] veinsmobilityType "\"org.car2x.veins.modules.mobility.traci.TraCIMobility\""
par ComplexNetwork.node[20].appl typename "\"org.car2x.veins.modules.application.traci.TraCIDemo11p\""
par ComplexNetwork.node[20].appl headerLength 80bit
attr unit bit
par ComplexNetwork.node[20].appl sendBeacons false
par ComplexNetwork.node[20].appl beaconLengthBits 256bit
attr unit bit
par ComplexNetwork.node[20].appl beaconUserPriority 7
par ComplexNetwork.node[20].appl beaconInterval 1s
attr unit s
par ComplexNetwork.node[20].appl dataLengthBits 1024bit
attr unit bit
par ComplexNetwork.node[20].appl dataOnSch false
par ComplexNetwork.node[20].appl dataUserPriority 7
par ComplexNetwork.node[20].appl avoidBeaconSynchronization true
par ComplexNetwork.node[20].appl sendWSA false
par ComplexNetwork.node[20].appl wsaLengthBits 250bit
attr unit bit
par ComplexNetwork.node[20].appl wsaInterval 1s
attr unit s
scalar ComplexNetwork.node[20].appl generatedWSMs 0
scalar ComplexNetwork.node[20].appl receivedWSMs 0
scalar ComplexNetwork.node[20].appl generatedBSMs 0
scalar ComplexNetwork.node[20].appl receivedBSMs 35
scalar ComplexNetwork.node[20].appl generatedWSAs 0
scalar ComplexNetwork.node[20].appl receivedWSAs 0
par ComplexNetwork.node[20].nic.phy80211p typename "\"org.car2x.veins.modules.phy.PhyLayer80211p\""
par ComplexNetwork.node[20].nic.phy80211p recordStats false
par ComplexNetwork.node[20].nic.phy80211p usePropagationDelay true
par ComplexNetwork.node[20].nic.phy80211p noiseFloor -98dBm
attr unit dBm
par ComplexNetwork.node[20].nic.phy80211p useNoiseFloor true
par ComplexNetwork.node[20].nic.phy80211p antenna "<Antenna type=\"SampledAntenna1D\" id=\"monopole\">...</Antenna> at /home/mihirajakuruppu/omnetpp-6.1/workspace/complex-network//antenna.xml:35"
par ComplexNetwork.node[20].nic.phy80211p antennaOffsetX 0m
attr unit m
par ComplexNetwork.node[20].nic.phy80211p antennaOffsetY 0m
attr unit m
par ComplexNetwork.node[20].nic.phy80211p antennaOffsetZ 1.895m
attr unit m
par ComplexNetwork.node[20].nic.phy80211p antennaOffsetYaw 0rad
attr unit rad
par ComplexNetwork.node[20].nic.phy80211p analogueModels "<root>...</root> at /home/mihirajakuruppu/omnetpp-6.1/workspace/complex-network//config.xml:2"
par ComplexNetwork.node[20].nic.phy80211p decider "<root>...</root> at /home/mihirajakuruppu/omnetpp-6.1/workspace/complex-network//config.xml:2"
par ComplexNetwork.node[20].nic.phy80211p minPowerLevel -110dBm
attr unit dBm
par ComplexNetwork.node[20].nic.phy80211p timeRXToTX 0s
attr unit s
par ComplexNetwork.node[20].nic.phy80211p timeRXToSleep 0s
attr unit s
par ComplexNetwork.node[20].nic.phy80211p timeTXToRX 0s
attr unit s
par ComplexNetwork.node[20].nic.phy80211p timeTXToSleep 0s
attr unit s
par ComplexNetwork.node[20].nic.phy80211p timeSleepToRX 0s
attr unit s
par ComplexNetwork.node[20].nic.phy80211p timeSleepToTX 0s
attr unit s
par ComplexNetwork.node[20].nic.phy80211p initialRadioState 0
par ComplexNetwork.node[20].nic.phy80211p radioMinAtt 1
par ComplexNetwork.node[20].nic.phy80211p radioMaxAtt 0
par ComplexNetwork.node[20].nic.phy80211p nbRadioChannels 1
par ComplexNetwork.node[20].nic.phy80211p initialRadioChannel 0
par ComplexNetwork.node[20].nic.phy80211p ccaThreshold -65dBm
attr unit dBm
par ComplexNetwork.node[20].nic.phy80211p collectCollisionStatistics false
par ComplexNetwork.node[20].nic.phy80211p allowTxDuringRx false
scalar ComplexNetwork.node[20].nic.phy80211p busyTime 0.0012388489208633
par ComplexNetwork.node[20].nic.mac1609_4 typename "\"org.car2x.veins.modules.mac.ieee80211p.Mac1609_4\""
par ComplexNetwork.node[20].nic.mac1609_4 notAffectedByHostState false
par ComplexNetwork.node[20].nic.mac1609_4 headerLength 0bit
attr unit bit
par ComplexNetwork.node[20].nic.mac1609_4 address "\"auto\""
par ComplexNetwork.node[20].nic.mac1609_4 useServiceChannel false
par ComplexNetwork.node[20].nic.mac1609_4 serviceChannel 1
par ComplexNetwork.node[20].nic.mac1609_4 bitrate 6000000bps
attr unit bps
par ComplexNetwork.node[20].nic.mac1609_4 syncOffset 0.0003s
attr unit s
par ComplexNetwork.node[20].nic.mac1609_4 txPower 20mW
attr unit mW
par ComplexNetwork.node[20].nic.mac1609_4 queueSize 0
par ComplexNetwork.node[20].nic.mac1609_4 dot11RTSThreshold 12000bit
attr unit bit
par ComplexNetwork.node[20].nic.mac1609_4 dot11ShortRetryLimit 7
par ComplexNetwork.node[20].nic.mac1609_4 dot11LongRetryLimit 4
par ComplexNetwork.node[20].nic.mac1609_4 ackLength 112bit
attr unit bit
par ComplexNetwork.node[20].nic.mac1609_4 useAcks false
par ComplexNetwork.node[20].nic.mac1609_4 frameErrorRate 0
par ComplexNetwork.node[20].nic.mac1609_4 ackErrorRate 0
scalar ComplexNetwork.node[20].nic.mac1609_4 ReceivedUnicastPackets 0
scalar ComplexNetwork.node[20].nic.mac1609_4 ReceivedBroadcasts 35
scalar ComplexNetwork.node[20].nic.mac1609_4 SentPackets 0
scalar ComplexNetwork.node[20].nic.mac1609_4 SentAcknowledgements 0
scalar ComplexNetwork.node[20].nic.mac1609_4 RetriesExceeded 0
scalar ComplexNetwork.node[20].nic.mac1609_4 SNIRLostPackets 0
scalar ComplexNetwork.node[20].nic.mac1609_4 RXTXLostPackets 0
scalar ComplexNetwork.node[20].nic.mac1609_4 TotalLostPackets 0
scalar ComplexNetwork.node[20].nic.mac1609_4 DroppedPacketsInMac 0
scalar ComplexNetwork.node[20].nic.mac1609_4 TooLittleTime 0
scalar ComplexNetwork.node[20].nic.mac1609_4 TimesIntoBackoff 0
scalar ComplexNetwork.node[20].nic.mac1609_4 SlotsBackoff 0
scalar ComplexNetwork.node[20].nic.mac1609_4 NumInternalContention 0
scalar ComplexNetwork.node[20].nic.mac1609_4 totalBusyTime 0.1722
scalar ComplexNetwork.node[20].nic.mac1609_4 retriesExceeded:count 0
attr recordingmode count
attr source org_car2x_veins_modules_mac_sigRetriesExceeded
scalar ComplexNetwork.node[20].nic.mac1609_4 sentAcks:count 0
attr recordingmode count
attr source org_car2x_veins_modules_mac_sigSentAck
scalar ComplexNetwork.node[20].nic.mac1609_4 sentPackets:count 0
attr recordingmode count
attr source org_car2x_veins_modules_mac_sigSentPacket
scalar ComplexNetwork.node[20].nic.mac1609_4 collisions:count 0
attr recordingmode count
attr source org_car2x_veins_modules_mac_sigCollision
scalar ComplexNetwork.node[20].nic.mac1609_4 channelBusy:timeavg 0.0012388489208633
attr recordingmode timeavg
attr source org_car2x_veins_modules_mac_sigChannelBusy
par ComplexNetwork.node[20].nic typename "\"org.car2x.veins.modules.nic.Nic80211p\""
par ComplexNetwork.node[20].nic connectionManagerName "\"connectionManager\""
par ComplexNetwork.node[20].veinsmobility typename "\"org.car2x.veins.modules.mobility.traci.TraCIMobility\""
par ComplexNetwork.node[20].veinsmobility notAffectedByHostState true
par ComplexNetwork.node[20].veinsmobility x 0
par ComplexNetwork.node[20].veinsmobility y 0
par ComplexNetwork.node[20].veinsmobility z 0
par ComplexNetwork.node[20].veinsmobility xOrientation 1
par ComplexNetwork.node[20].veinsmobility yOrientation 0
par ComplexNetwork.node[20].veinsmobility zOrientation 0
par ComplexNetwork.node[20].veinsmobility hostPositionOffset 0m
attr unit m
par ComplexNetwork.node[20].veinsmobility setHostSpeed false
par ComplexNetwork.node[20].veinsmobility accidentCount 0
par ComplexNetwork.node[20].veinsmobility accidentStart 73s
attr unit s
par ComplexNetwork.node[20].veinsmobility accidentDuration 50s
attr unit s
par ComplexNetwork.node[20].veinsmobility accidentInterval "uniform(30s, 60s)"
attr unit s
scalar ComplexNetwork.node[20].veinsmobility startTime 101
scalar ComplexNetwork.node[20].veinsmobility totalTime 138
scalar ComplexNetwork.node[20].veinsmobility stopTime 240
scalar ComplexNetwork.node[20].veinsmobility minSpeed 1.7385078541934
scalar ComplexNetwork.node[20].veinsmobility maxSpeed 15.585021747026
scalar ComplexNetwork.node[20].veinsmobility totalDistance 1279.0594576654
scalar ComplexNetwork.node[20].veinsmobility totalCO2Emission 401.05121305558
par ComplexNetwork.node[20] typename "\"org.car2x.veins.nodes.Car\""
par ComplexNetwork.node[20] applType "\"TraCIDemo11p\""
par ComplexNetwork.node[20] nicType "\"Nic80211p\""
par ComplexNetwork.node[20] veinsmobilityType "\"org.car2x.veins.modules.mobility.traci.TraCIMobility\""
par ComplexNetwork.obstacles typename "\"org.car2x.veins.modules.obstacle.ObstacleControl\""
par ComplexNetwork.obstacles obstacles "<obstacles/> at content:1"
par ComplexNetwork.obstacles gridCellSize 250
par ComplexNetwork.annotations typename "\"org.car2x.veins.modules.world.annotations.AnnotationManager\""
par ComplexNetwork.annotations draw true
par ComplexNetwork.annotations annotations "<annotations/> at content:1"
par ComplexNetwork.connectionManager typename "\"org.car2x.veins.base.connectionManager.ConnectionManager\""
par ComplexNetwork.connectionManager sendDirect true
par ComplexNetwork.connectionManager maxInterfDist 2600m
attr unit m
par ComplexNetwork.connectionManager drawMaxIntfDist false
par ComplexNetwork.world typename "\"org.car2x.veins.base.modules.BaseWorldUtility\""
par ComplexNetwork.world playgroundSizeX 2500m
attr unit m
par ComplexNetwork.world playgroundSizeY 2500m
attr unit m
par ComplexNetwork.world playgroundSizeZ 50m
attr unit m
par ComplexNetwork.world useTorus false
par ComplexNetwork.world use2D false
par ComplexNetwork.manager typename "\"org.car2x.veins.modules.mobility.traci.TraCIScenarioManagerLaunchd\""
par ComplexNetwork.manager connectAt 0s
attr unit s
par ComplexNetwork.manager firstStepAt -1s
attr unit s
par ComplexNetwork.manager updateInterval 1s
attr unit s
par ComplexNetwork.manager moduleType "\"org.car2x.veins.nodes.Car\""
par ComplexNetwork.manager moduleName "\"node\""
par ComplexNetwork.manager moduleDisplayString "\"*='i=veins/node/car;is=vs'\""
par ComplexNetwork.manager trafficLightModuleType "\"org.car2x.veins.nodes.TrafficLight\""
par ComplexNetwork.manager trafficLightModuleName "\"tls\""
par ComplexNetwork.manager trafficLightFilter "\"\""
par ComplexNetwork.manager trafficLightModuleDisplayString "\"i=veins/node/trafficlight;is=vs\""
par ComplexNetwork.manager host "\"localhost\""
par ComplexNetwork.manager port 9999
par ComplexNetwork.manager seed -1
par ComplexNetwork.manager autoShutdown true
par ComplexNetwork.manager margin 25
par ComplexNetwork.manager roiRoads "\"\""
par ComplexNetwork.manager roiRects "\"\""
par ComplexNetwork.manager penetrationRate 1
par ComplexNetwork.manager ignoreGuiCommands false
par ComplexNetwork.manager order -1
par ComplexNetwork.manager ignoreUnknownSubscriptionResults false
par ComplexNetwork.manager launchConfig "<launch>...</launch> at /home/mihirajakuruppu/omnetpp-6.1/workspace/complex-network//ComplexNetwork.launched.xml:2"
scalar ComplexNetwork.manager roiArea 0
par ComplexNetwork.roadsCanvasVisualizer typename "\"org.car2x.veins.visualizer.roads.RoadsCanvasVisualizer\""
par ComplexNetwork.roadsCanvasVisualizer enabled true
par ComplexNetwork.roadsCanvasVisualizer lineZIndex -1
par ComplexNetwork.roadsCanvasVisualizer lineColor "\"firebrick4\""
par ComplexNetwork.roadsCanvasVisualizer lineWidth 1
par ComplexNetwork.roadsCanvasVisualizer lineWidthZoom false
par ComplexNetwork.rsu[0].appl typename "\"MyRSUApp\""
par ComplexNetwork.rsu[0].appl headerLength 80bit
attr unit bit
par ComplexNetwork.rsu[0].appl sendBeacons false
par ComplexNetwork.rsu[0].appl dataOnSch false
par ComplexNetwork.rsu[0].appl beaconInterval 4s
attr unit s
par ComplexNetwork.rsu[0].appl beaconUserPriority 7
par ComplexNetwork.rsu[0].appl dataUserPriority 5
par ComplexNetwork.rsu[0].appl beaconLengthBits 256bit
attr unit bit
par ComplexNetwork.rsu[0].appl dataLengthBits 1024bit
attr unit bit
par ComplexNetwork.rsu[0].appl avoidBeaconSynchronization true
par ComplexNetwork.rsu[0].appl maxOffset 0.005s
attr unit s
par ComplexNetwork.rsu[0].appl sendWSA false
par ComplexNetwork.rsu[0].appl currentOfferedServiceId 42
scalar ComplexNetwork.rsu[0].appl generatedWSMs 24613
scalar ComplexNetwork.rsu[0].appl receivedWSMs 0
scalar ComplexNetwork.rsu[0].appl generatedBSMs 63
scalar ComplexNetwork.rsu[0].appl receivedBSMs 3196497008
scalar ComplexNetwork.rsu[0].appl generatedWSAs 0
scalar ComplexNetwork.rsu[0].appl receivedWSAs 0
par ComplexNetwork.rsu[0].nic.phy80211p typename "\"org.car2x.veins.modules.phy.PhyLayer80211p\""
par ComplexNetwork.rsu[0].nic.phy80211p recordStats false
par ComplexNetwork.rsu[0].nic.phy80211p usePropagationDelay true
par ComplexNetwork.rsu[0].nic.phy80211p noiseFloor -98dBm
attr unit dBm
par ComplexNetwork.rsu[0].nic.phy80211p useNoiseFloor true
par ComplexNetwork.rsu[0].nic.phy80211p antenna "<Antenna type=\"SampledAntenna1D\" id=\"monopole\">...</Antenna> at /home/mihirajakuruppu/omnetpp-6.1/workspace/complex-network//antenna.xml:35"
par ComplexNetwork.rsu[0].nic.phy80211p antennaOffsetX 0m
attr unit m
par ComplexNetwork.rsu[0].nic.phy80211p antennaOffsetY 0m
attr unit m
par ComplexNetwork.rsu[0].nic.phy80211p antennaOffsetZ 0m
attr unit m
par ComplexNetwork.rsu[0].nic.phy80211p antennaOffsetYaw 0rad
attr unit rad
par ComplexNetwork.rsu[0].nic.phy80211p analogueModels "<root>...</root> at /home/mihirajakuruppu/omnetpp-6.1/workspace/complex-network//config.xml:2"
par ComplexNetwork.rsu[0].nic.phy80211p decider "<root>...</root> at /home/mihirajakuruppu/omnetpp-6.1/workspace/complex-network//config.xml:2"
par ComplexNetwork.rsu[0].nic.phy80211p minPowerLevel -110dBm
attr unit dBm
par ComplexNetwork.rsu[0].nic.phy80211p timeRXToTX 0s
attr unit s
par ComplexNetwork.rsu[0].nic.phy80211p timeRXToSleep 0s
attr unit s
par ComplexNetwork.rsu[0].nic.phy80211p timeTXToRX 0s
attr unit s
par ComplexNetwork.rsu[0].nic.phy80211p timeTXToSleep 0s
attr unit s
par ComplexNetwork.rsu[0].nic.phy80211p timeSleepToRX 0s
attr unit s
par ComplexNetwork.rsu[0].nic.phy80211p timeSleepToTX 0s
attr unit s
par ComplexNetwork.rsu[0].nic.phy80211p initialRadioState 0
par ComplexNetwork.rsu[0].nic.phy80211p radioMinAtt 1
par ComplexNetwork.rsu[0].nic.phy80211p radioMaxAtt 0
par ComplexNetwork.rsu[0].nic.phy80211p nbRadioChannels 1
par ComplexNetwork.rsu[0].nic.phy80211p initialRadioChannel 0
par ComplexNetwork.rsu[0].nic.phy80211p ccaThreshold -65dBm
attr unit dBm
par ComplexNetwork.rsu[0].nic.phy80211p collectCollisionStatistics false
par ComplexNetwork.rsu[0].nic.phy80211p allowTxDuringRx false
scalar ComplexNetwork.rsu[0].nic.phy80211p busyTime 0
par ComplexNetwork.rsu[0].nic.mac1609_4 typename "\"org.car2x.veins.modules.mac.ieee80211p.Mac1609_4\""
par ComplexNetwork.rsu[0].nic.mac1609_4 notAffectedByHostState false
par ComplexNetwork.rsu[0].nic.mac1609_4 headerLength 0bit
attr unit bit
par ComplexNetwork.rsu[0].nic.mac1609_4 address "\"auto\""
par ComplexNetwork.rsu[0].nic.mac1609_4 useServiceChannel false
par ComplexNetwork.rsu[0].nic.mac1609_4 serviceChannel 1
par ComplexNetwork.rsu[0].nic.mac1609_4 bitrate 6000000bps
attr unit bps
par ComplexNetwork.rsu[0].nic.mac1609_4 syncOffset 0.0003s
attr unit s
par ComplexNetwork.rsu[0].nic.mac1609_4 txPower 20mW
attr unit mW
par ComplexNetwork.rsu[0].nic.mac1609_4 queueSize 0
par ComplexNetwork.rsu[0].nic.mac1609_4 dot11RTSThreshold 12000bit
attr unit bit
par ComplexNetwork.rsu[0].nic.mac1609_4 dot11ShortRetryLimit 7
par ComplexNetwork.rsu[0].nic.mac1609_4 dot11LongRetryLimit 4
par ComplexNetwork.rsu[0].nic.mac1609_4 ackLength 112bit
attr unit bit
par ComplexNetwork.rsu[0].nic.mac1609_4 useAcks false
par ComplexNetwork.rsu[0].nic.mac1609_4 frameErrorRate 0
par ComplexNetwork.rsu[0].nic.mac1609_4 ackErrorRate 0
scalar ComplexNetwork.rsu[0].nic.mac1609_4 ReceivedUnicastPackets 0
scalar ComplexNetwork.rsu[0].nic.mac1609_4 ReceivedBroadcasts 0
scalar ComplexNetwork.rsu[0].nic.mac1609_4 SentPackets 63
scalar ComplexNetwork.rsu[0].nic.mac1609_4 SentAcknowledgements 0
scalar ComplexNetwork.rsu[0].nic.mac1609_4 RetriesExceeded 0
scalar ComplexNetwork.rsu[0].nic.mac1609_4 SNIRLostPackets 0
scalar ComplexNetwork.rsu[0].nic.mac1609_4 RXTXLostPackets 0
scalar ComplexNetwork.rsu[0].nic.mac1609_4 TotalLostPackets 0
scalar ComplexNetwork.rsu[0].nic.mac1609_4 DroppedPacketsInMac 0
scalar ComplexNetwork.rsu[0].nic.mac1609_4 TooLittleTime 0
scalar ComplexNetwork.rsu[0].nic.mac1609_4 TimesIntoBackoff 62
scalar ComplexNetwork.rsu[0].nic.mac1609_4 SlotsBackoff 72
scalar ComplexNetwork.rsu[0].nic.mac1609_4 NumInternalContention 0
scalar ComplexNetwork.rsu[0].nic.mac1609_4 totalBusyTime 0.305102
scalar ComplexNetwork.rsu[0].nic.mac1609_4 retriesExceeded:count 0
attr recordingmode count
attr source org_car2x_veins_modules_mac_sigRetriesExceeded
scalar ComplexNetwork.rsu[0].nic.mac1609_4 sentAcks:count 0
attr recordingmode count
attr source org_car2x_veins_modules_mac_sigSentAck
scalar ComplexNetwork.rsu[0].nic.mac1609_4 sentPackets:count 63
attr recordingmode count
attr source org_car2x_veins_modules_mac_sigSentPacket
scalar ComplexNetwork.rsu[0].nic.mac1609_4 collisions:count 0
attr recordingmode count
attr source org_car2x_veins_modules_mac_sigCollision
scalar ComplexNetwork.rsu[0].nic.mac1609_4 channelBusy:timeavg 0.0012204079853551
attr recordingmode timeavg
attr source org_car2x_veins_modules_mac_sigChannelBusy
par ComplexNetwork.rsu[0].nic typename "\"org.car2x.veins.modules.nic.Nic80211p\""
par ComplexNetwork.rsu[0].nic connectionManagerName "\"connectionManager\""
par ComplexNetwork.rsu[0].mobility typename "\"org.car2x.veins.base.modules.BaseMobility\""
par ComplexNetwork.rsu[0].mobility notAffectedByHostState true
par ComplexNetwork.rsu[0].mobility x 60
par ComplexNetwork.rsu[0].mobility y 60
par ComplexNetwork.rsu[0].mobility z 3
par ComplexNetwork.rsu[0].mobility xOrientation 1
par ComplexNetwork.rsu[0].mobility yOrientation 0
par ComplexNetwork.rsu[0].mobility zOrientation 0
par ComplexNetwork.rsu[0] typename "\"org.car2x.veins.nodes.RSU\""
par ComplexNetwork.rsu[0] applType "\"MyRSUApp\""
par ComplexNetwork.rsu[0] nicType "\"Nic80211p\""
par ComplexNetwork typename "\"ComplexNetwork\""
par ComplexNetwork playgroundSizeX 2500m
attr unit m
par ComplexNetwork playgroundSizeY 2500m
attr unit m
par ComplexNetwork playgroundSizeZ 50m
attr unit m

