version 3
run Default-0-20250916-08:34:14-11705
attr configname Default
attr datetime 20250916-08:34:14
attr datetimef 20250916-083414
attr experiment Default
attr inifile omnetpp.ini
attr iterationvars ""
attr iterationvarsd ""
attr iterationvarsf ""
attr measurement ""
attr network ComplexNetwork
attr processid 11705
attr repetition 0
attr replication #0
attr resultdir results
attr runnumber 0
attr seedset 0
config image-path ../../../veins-5.3.1/images
config cmdenv-express-mode true
config cmdenv-autoflush true
config cmdenv-status-frequency 1s
config **.cmdenv-log-level info
config image-path ../../images
config network ComplexNetwork
config debug-on-errors true
config print-undisposed true
config sim-time-limit 400s
config **.scalar-recording true
config **.vector-recording true
config *.playgroundSizeX 2500m
config *.playgroundSizeY 2500m
config *.playgroundSizeZ 50m
config *.manager.updateInterval 1s
config *.manager.host "\"localhost\""
config *.manager.port 9999
config *.manager.autoShutdown true
config *.manager.launchConfig "xmldoc(\"ComplexNetwork.launched.xml\")"
config *.manager.trafficLightModuleType "\"org.car2x.veins.nodes.TrafficLight\""
config *.connectionManager.sendDirect true
config *.connectionManager.maxInterfDist 2600m
config *.connectionManager.drawMaxIntfDist false
config *.tls[*].mobility.x 0
config *.tls[*].mobility.y 0
config *.tls[*].mobility.z 3
config *.tls[*].applType "\"org.car2x.veins.modules.application.traci.TraCIDemoTrafficLightApp\""
config *.tls[*].logicType "\"org.car2x.veins.modules.world.traci.trafficLight.logics.TraCITrafficLightSimpleLogic\""
config *.rsu[0].mobility.x 60
config *.rsu[0].mobility.y 60
config *.rsu[0].mobility.z 3
config *.rsu[*].applType "\"MyRSUApp\""
config *.rsu[*].appl.headerLength 80bit
config *.rsu[*].appl.sendBeacons false
config *.rsu[*].appl.dataOnSch false
config *.rsu[*].appl.beaconInterval 4s
config *.rsu[*].appl.beaconUserPriority 7
config *.rsu[*].appl.dataUserPriority 5
config *.rsu[*].nic.phy80211p.antennaOffsetZ 0m
config *.node[*].applType "\"TraCIDemo11p\""
config *.node[*].appl.headerLength 80bit
config *.node[*].appl.sendBeacons false
config *.node[*].appl.dataOnSch false
config *.node[*].appl.beaconInterval 1s
config *.node[*].veinsmobility.x 0
config *.node[*].veinsmobility.y 0
config *.node[*].veinsmobility.z 0
config *.node[*].veinsmobility.setHostSpeed false
config *.node[*0].veinsmobility.accidentCount 0
config *.node[*0].veinsmobility.accidentStart 73s
config *.node[*0].veinsmobility.accidentDuration 50s
config *.**.nic.phy80211p.minPowerLevel -110dBm
config *.**.nic.phy80211p.useNoiseFloor true
config *.**.nic.phy80211p.noiseFloor -98dBm
config *.**.nic.phy80211p.usePropagationDelay true
config *.**.nic.phy80211p.decider "xmldoc(\"config.xml\")"
config *.**.nic.phy80211p.analogueModels "xmldoc(\"config.xml\")"
config *.**.nic.phy80211p.antenna "xmldoc(\"antenna.xml\", \"/root/Antenna[@id='monopole']\")"
config *.node[*].nic.phy80211p.antennaOffsetY 0m
config *.node[*].nic.phy80211p.antennaOffsetZ 1.895m
config *.**.nic.mac1609_4.useServiceChannel false
config *.**.nic.mac1609_4.txPower 20mW
config *.**.nic.mac1609_4.bitrate 6Mbps
config *.obstacles.debug true
config *.annotations.draw true

vector 0 ComplexNetwork.rsu[0].nic.phy80211p RadioState ETV
vector 1 ComplexNetwork.rsu[0].nic.phy80211p RadioChannel ETV
vector 2 ComplexNetwork.node[0].nic.phy80211p RadioState ETV
vector 3 ComplexNetwork.node[0].nic.phy80211p RadioChannel ETV
vector 4 ComplexNetwork.manager posx ETV
vector 5 ComplexNetwork.manager posy ETV
vector 6 ComplexNetwork.manager speed ETV
vector 7 ComplexNetwork.manager acceleration ETV
vector 8 ComplexNetwork.manager co2emission ETV
vector 9 ComplexNetwork.node[1].nic.phy80211p RadioState ETV
vector 10 ComplexNetwork.node[1].nic.phy80211p RadioChannel ETV
vector 11 ComplexNetwork.manager posx ETV
vector 12 ComplexNetwork.manager posy ETV
vector 13 ComplexNetwork.manager speed ETV
vector 14 ComplexNetwork.manager acceleration ETV
vector 15 ComplexNetwork.manager co2emission ETV
vector 16 ComplexNetwork.node[2].nic.phy80211p RadioState ETV
vector 17 ComplexNetwork.node[2].nic.phy80211p RadioChannel ETV
vector 18 ComplexNetwork.manager posx ETV
vector 19 ComplexNetwork.manager posy ETV
vector 20 ComplexNetwork.manager speed ETV
vector 21 ComplexNetwork.manager acceleration ETV
vector 22 ComplexNetwork.manager co2emission ETV
vector 23 ComplexNetwork.node[3].nic.phy80211p RadioState ETV
vector 24 ComplexNetwork.node[3].nic.phy80211p RadioChannel ETV
vector 25 ComplexNetwork.manager posx ETV
vector 26 ComplexNetwork.manager posy ETV
vector 27 ComplexNetwork.manager speed ETV
vector 28 ComplexNetwork.manager acceleration ETV
vector 29 ComplexNetwork.manager co2emission ETV
vector 30 ComplexNetwork.node[4].nic.phy80211p RadioState ETV
vector 31 ComplexNetwork.node[4].nic.phy80211p RadioChannel ETV
vector 32 ComplexNetwork.manager posx ETV
vector 33 ComplexNetwork.manager posy ETV
vector 34 ComplexNetwork.manager speed ETV
vector 35 ComplexNetwork.manager acceleration ETV
vector 36 ComplexNetwork.manager co2emission ETV
vector 37 ComplexNetwork.node[5].nic.phy80211p RadioState ETV
vector 38 ComplexNetwork.node[5].nic.phy80211p RadioChannel ETV
vector 39 ComplexNetwork.manager posx ETV
vector 40 ComplexNetwork.manager posy ETV
vector 41 ComplexNetwork.manager speed ETV
vector 42 ComplexNetwork.manager acceleration ETV
vector 43 ComplexNetwork.manager co2emission ETV
vector 44 ComplexNetwork.node[6].nic.phy80211p RadioState ETV
vector 45 ComplexNetwork.node[6].nic.phy80211p RadioChannel ETV
vector 46 ComplexNetwork.manager posx ETV
vector 47 ComplexNetwork.manager posy ETV
vector 48 ComplexNetwork.manager speed ETV
vector 49 ComplexNetwork.manager acceleration ETV
vector 50 ComplexNetwork.manager co2emission ETV
vector 51 ComplexNetwork.node[7].nic.phy80211p RadioState ETV
vector 52 ComplexNetwork.node[7].nic.phy80211p RadioChannel ETV
vector 53 ComplexNetwork.manager posx ETV
vector 54 ComplexNetwork.manager posy ETV
vector 55 ComplexNetwork.manager speed ETV
vector 56 ComplexNetwork.manager acceleration ETV
vector 57 ComplexNetwork.manager co2emission ETV
vector 58 ComplexNetwork.node[8].nic.phy80211p RadioState ETV
vector 59 ComplexNetwork.node[8].nic.phy80211p RadioChannel ETV
vector 60 ComplexNetwork.manager posx ETV
vector 61 ComplexNetwork.manager posy ETV
vector 62 ComplexNetwork.manager speed ETV
vector 63 ComplexNetwork.manager acceleration ETV
vector 64 ComplexNetwork.manager co2emission ETV
vector 65 ComplexNetwork.node[9].nic.phy80211p RadioState ETV
vector 66 ComplexNetwork.node[9].nic.phy80211p RadioChannel ETV
vector 67 ComplexNetwork.manager posx ETV
vector 68 ComplexNetwork.manager posy ETV
vector 69 ComplexNetwork.manager speed ETV
vector 70 ComplexNetwork.manager acceleration ETV
vector 71 ComplexNetwork.manager co2emission ETV
vector 72 ComplexNetwork.node[10].nic.phy80211p RadioState ETV
vector 73 ComplexNetwork.node[10].nic.phy80211p RadioChannel ETV
vector 74 ComplexNetwork.manager posx ETV
vector 75 ComplexNetwork.manager posy ETV
vector 76 ComplexNetwork.manager speed ETV
vector 77 ComplexNetwork.manager acceleration ETV
vector 78 ComplexNetwork.manager co2emission ETV
vector 79 ComplexNetwork.node[11].nic.phy80211p RadioState ETV
vector 80 ComplexNetwork.node[11].nic.phy80211p RadioChannel ETV
vector 81 ComplexNetwork.manager posx ETV
vector 82 ComplexNetwork.manager posy ETV
vector 83 ComplexNetwork.manager speed ETV
vector 84 ComplexNetwork.manager acceleration ETV
vector 85 ComplexNetwork.manager co2emission ETV
vector 86 ComplexNetwork.node[12].nic.phy80211p RadioState ETV
vector 87 ComplexNetwork.node[12].nic.phy80211p RadioChannel ETV
vector 88 ComplexNetwork.manager posx ETV
vector 89 ComplexNetwork.manager posy ETV
vector 90 ComplexNetwork.manager speed ETV
vector 91 ComplexNetwork.manager acceleration ETV
vector 92 ComplexNetwork.manager co2emission ETV
vector 93 ComplexNetwork.node[13].nic.phy80211p RadioState ETV
vector 94 ComplexNetwork.node[13].nic.phy80211p RadioChannel ETV
vector 95 ComplexNetwork.manager posx ETV
vector 96 ComplexNetwork.manager posy ETV
vector 97 ComplexNetwork.manager speed ETV
vector 98 ComplexNetwork.manager acceleration ETV
vector 99 ComplexNetwork.manager co2emission ETV
vector 100 ComplexNetwork.node[14].nic.phy80211p RadioState ETV
vector 101 ComplexNetwork.node[14].nic.phy80211p RadioChannel ETV
vector 102 ComplexNetwork.manager posx ETV
vector 103 ComplexNetwork.manager posy ETV
vector 104 ComplexNetwork.manager speed ETV
vector 105 ComplexNetwork.manager acceleration ETV
vector 106 ComplexNetwork.manager co2emission ETV
vector 107 ComplexNetwork.node[15].nic.phy80211p RadioState ETV
vector 108 ComplexNetwork.node[15].nic.phy80211p RadioChannel ETV
vector 109 ComplexNetwork.manager posx ETV
vector 110 ComplexNetwork.manager posy ETV
vector 111 ComplexNetwork.manager speed ETV
vector 112 ComplexNetwork.manager acceleration ETV
vector 113 ComplexNetwork.manager co2emission ETV
vector 114 ComplexNetwork.node[16].nic.phy80211p RadioState ETV
vector 115 ComplexNetwork.node[16].nic.phy80211p RadioChannel ETV
vector 116 ComplexNetwork.manager posx ETV
vector 117 ComplexNetwork.manager posy ETV
vector 118 ComplexNetwork.manager speed ETV
vector 119 ComplexNetwork.manager acceleration ETV
vector 120 ComplexNetwork.manager co2emission ETV
vector 121 ComplexNetwork.node[17].nic.phy80211p RadioState ETV
vector 122 ComplexNetwork.node[17].nic.phy80211p RadioChannel ETV
vector 123 ComplexNetwork.manager posx ETV
vector 124 ComplexNetwork.manager posy ETV
vector 125 ComplexNetwork.manager speed ETV
vector 126 ComplexNetwork.manager acceleration ETV
vector 127 ComplexNetwork.manager co2emission ETV
vector 128 ComplexNetwork.node[18].nic.phy80211p RadioState ETV
vector 129 ComplexNetwork.node[18].nic.phy80211p RadioChannel ETV
vector 130 ComplexNetwork.manager posx ETV
vector 131 ComplexNetwork.manager posy ETV
vector 132 ComplexNetwork.manager speed ETV
vector 133 ComplexNetwork.manager acceleration ETV
vector 134 ComplexNetwork.manager co2emission ETV
vector 135 ComplexNetwork.node[19].nic.phy80211p RadioState ETV
vector 136 ComplexNetwork.node[19].nic.phy80211p RadioChannel ETV
vector 137 ComplexNetwork.manager posx ETV
vector 138 ComplexNetwork.manager posy ETV
vector 139 ComplexNetwork.manager speed ETV
vector 140 ComplexNetwork.manager acceleration ETV
vector 141 ComplexNetwork.manager co2emission ETV
vector 142 ComplexNetwork.node[20].nic.phy80211p RadioState ETV
vector 143 ComplexNetwork.node[20].nic.phy80211p RadioChannel ETV
vector 144 ComplexNetwork.manager posx ETV
vector 145 ComplexNetwork.manager posy ETV
vector 146 ComplexNetwork.manager speed ETV
vector 147 ComplexNetwork.manager acceleration ETV
vector 148 ComplexNetwork.manager co2emission ETV
8	19	3	3.6860301118415
8	20	4	4.406775890087
8	21	5	7.0480482036309
8	23	6	6.6601703498328
8	44	7	8.8385675650777
8	45	8	10.709303828799
8	46	9	0.973
8	48	10	4.819554965787
8	69	11	0.973
8	70	12	4.9010589442512
8	71	13	2.7154732233804
8	73	14	0.973
8	100	15	0.973
8	101	16	5.2938773527775
8	102	17	0.973
8	104	18	6.2596856720996
8	137	19	0.973
8	138	20	4.8498176417035
8	139	21	0.973
8	141	22	3.4550461435705
8	180	23	0.973
8	181	24	0.973
8	182	25	0.973
8	184	26	4.781252903893
8	229	27	4.7406196611284
8	230	28	6.4471666058208
8	231	29	6.6312447480621
8	233	30	8.7862418881702
8	278	31	4.4158549524809
8	279	32	5.3020328745111
8	280	33	2.9096997899688
8	282	34	0.973
8	333	35	6.2231411166728
8	334	36	1.422262419793
8	335	37	0.973
8	337	38	3.811813811748
8	394	39	3.7824340634152
8	395	40	0.973
8	396	41	0.973
8	398	42	4.0078621247136
8	461	43	2.1752436546823
8	462	44	2.8263435286457
8	463	45	0.973
8	465	46	0.973
8	534	47	0.973
8	535	48	0.973
8	536	49	3.6480581884212
8	538	50	6.4241463019904
8	607	51	6.0401374919091
8	608	52	6.4858889587331
8	609	53	6.1993177832104
8	611	54	7.1385458037689
8	686	55	5.4524067633531
8	687	56	0.973
8	688	57	5.7838255727738
8	690	58	0.973
8	771	59	6.0479136951088
8	772	60	0.973
8	773	61	1.8474477192515
8	775	62	3.7571706671681
8	862	63	0.973
8	863	64	3.3489249023615
8	864	65	2.6622723431609
8	866	66	0.973
8	959	67	2.2473532503879
8	960	68	1.8320807905828
8	961	69	0.973
8	963	70	0.973
8	1056	71	0.973
8	1057	72	1.7311510389252
8	1058	73	4.2134013917947
8	1060	74	7.0363542420046
8	1159	75	5.576510044239
8	1160	76	6.2414849640202
8	1161	77	6.9110122371941
8	1163	78	8.2006600993853
8	1268	79	3.3614529938056
8	1269	80	0.973
8	1270	81	1.9897139341088
8	1272	82	3.0196859735575
8	1383	83	4.9634264010066
8	1384	84	0.973
8	1385	85	2.4800415256822
8	1387	86	0.973
8	1504	87	0.973
8	1505	88	1.6193966287884
8	1506	89	0.973
8	1508	90	6.0031345870815
8	1625	91	5.7356316799492
8	1626	92	7.3954138466701
8	1627	93	9.6331356317792
8	1629	94	3.2298333566409
8	1752	95	0.973
8	1753	96	0.973
8	1754	97	7.1353903247243
8	1756	98	8.5456239686912
8	1885	99	8.7601625014099
8	1886	100	6.3978173921051
8	1887	101	0.973
8	1889	102	1.6216167934928
8	2024	103	2.9147036181639
7	19	3	2.1753469938878
7	20	4	1.9198876491515
7	21	5	2.5276067882543
7	23	6	1.884088109131
7	44	7	2.1987981781596
7	45	8	2.3090047334715
7	46	9	-0.73485042962711
7	48	10	0.71572653548792
7	69	11	-0.93538137988653
7	70	12	0.75239371815696
7	71	13	0.14675340293907
7	73	14	-0.45345167531632
7	100	15	-0.40774121608119
7	101	16	0.84852697364986
7	102	17	-0.90654725597706
7	104	18	1.092181937024
7	137	19	-0.88437552358955
7	138	20	0.72564783934504
7	139	21	-0.50754145747051
7	141	22	0.35516011796426
7	180	23	-3.7758562395211
7	181	24	-4.3886070182547
7	182	25	-3.1291108355583
7	184	26	2.2769368349575
7	229	27	1.7034126528772
7	230	28	2.0150319518521
7	231	29	1.7299345174339
7	233	30	2.0657769595738
7	278	31	0.68003385230498
7	279	32	0.85850908346474
7	280	33	0.19546499843709
7	282	34	-0.98823676586617
7	333	35	1.0810311885318
7	334	36	-0.20436282765586
7	335	37	-0.75963758639991
7	337	38	0.46374235481489
7	394	39	0.42987335824873
7	395	40	-0.42290495529305
7	396	41	-0.57313621402718
7	398	42	0.52108462280594
7	461	43	0.010737839015201
7	462	44	0.18387910590973
7	463	45	-0.47862597291823
7	465	46	-2.7075608846128
7	534	47	-4.2180726029444
7	535	48	-3.7073749797842
7	536	49	1.652940650261
7	538	50	2.4860693038907
7	607	51	1.8179015217815
7	608	52	1.6681086091325
7	609	53	1.3621651400579
7	611	54	1.453117227094
7	686	55	0.88606099262834
7	687	56	-0.93583106496371
7	688	57	0.97238561380655
7	690	58	-1.0782746542012
7	771	59	1.0468517293222
7	772	60	-0.42233376756776
7	773	61	-0.077983629028312
7	775	62	0.43067771538626
7	862	63	-0.73258755218703
7	863	64	0.34023894818965
7	864	65	0.14277709580492
7	866	66	-0.66590770264156
7	959	67	0.048492551548406
7	960	68	-0.069494873424992
7	961	69	-2.192181454837
7	963	70	-4.4379896501079
7	1056	71	-3.8575067980448
7	1057	72	0.40191520461813
7	1058	73	1.8890440943418
7	1060	74	2.5926332155941
7	1159	75	1.5627312774537
7	1160	76	1.5470325991511
7	1161	77	1.5334775536321
7	1163	78	1.6710025337345
7	1268	79	0.31829167620745
7	1269	80	-0.91858300399035
7	1270	81	-0.026215177238919
7	1272	82	0.2579764844384
7	1383	83	0.74667251806241
7	1384	84	-0.55827539043967
7	1385	85	0.094676253735088
7	1387	86	-4.3180627837156
7	1504	87	-3.6757314940682
7	1505	88	0.08152112455573
7	1506	89	-0.86365183484741
7	1508	90	2.1996845621383
7	1625	91	1.6729553929064
7	1626	92	1.9247910779435
7	1627	93	2.2166085604578
7	1629	94	0.32551157493913
7	1752	95	-3.2953540039268
7	1753	96	-4.4352743801195
7	1754	97	2.4708577161422
7	1756	98	2.3974915228086
7	1885	99	2.0465621652314
7	1886	100	1.1894619769901
7	1887	101	-0.43391689844429
7	1889	102	-0.13043773721438
7	2024	103	0.23338011342566
6	4	2	2.3097215975402
6	19	3	4.485068591428
6	20	4	6.4049562405795
6	21	5	8.9325630288338
6	23	6	10.816651137965
6	44	7	13.015449316124
6	45	8	15.324454049596
6	46	9	14.589603619969
6	48	10	15.305330155457
6	69	11	14.36994877557
6	70	12	15.122342493727
6	71	13	15.269095896666
6	73	14	14.81564422135
6	100	15	14.407903005269
6	101	16	15.256429978919
6	102	17	14.349882722942
6	104	18	15.442064659966
6	137	19	14.557689136376
6	138	20	15.283336975721
6	139	21	14.775795518251
6	141	22	15.130955636215
6	180	23	11.355099396694
6	181	24	6.966492378439
6	182	25	3.8373815428807
6	184	26	6.1143183778382
6	229	27	7.8177310307153
6	230	28	9.8327629825675
6	231	29	11.562697500001
6	233	30	13.628474459575
6	278	31	14.30850831188
6	279	32	15.167017395345
6	280	33	15.362482393782
6	282	34	14.374245627916
6	333	35	15.455276816448
6	334	36	15.250913988792
6	335	37	14.491276402392
6	337	38	14.955018757207
6	394	39	15.384892115455
6	395	40	14.961987160162
6	396	41	14.388850946135
6	398	42	14.909935568941
6	461	43	14.920673407956
6	462	44	15.104552513866
6	463	45	14.625926540948
6	465	46	11.918365656335
6	534	47	7.7002930533906
6	535	48	3.9929180736064
6	536	49	5.6458587238674
6	538	50	8.1319280277581
6	607	51	9.9498295495395
6	608	52	11.617938158672
6	609	53	12.98010329873
6	611	54	14.433220525824
6	686	55	15.319281518452
6	687	56	14.383450453488
6	688	57	15.355836067295
6	690	58	14.277561413094
6	771	59	15.324413142416
6	772	60	14.902079374848
6	773	61	14.82409574582
6	775	62	15.254773461206
6	862	63	14.522185909019
6	863	64	14.862424857209
6	864	65	15.005201953014
6	866	66	14.339294250372
6	959	67	14.387786801921
6	960	68	14.318291928496
6	961	69	12.126110473659
6	963	70	7.6881208235507
6	1056	71	3.8306140255059
6	1057	72	4.232529230124
6	1058	73	6.1215733244658
6	1060	74	8.7142065400599
6	1159	75	10.276937817514
6	1160	76	11.823970416665
6	1161	77	13.357447970297
6	1163	78	15.028450504031
6	1268	79	15.346742180239
6	1269	80	14.428159176248
6	1270	81	14.40194399901
6	1272	82	14.659920483448
6	1383	83	15.40659300151
6	1384	84	14.848317611071
6	1385	85	14.942993864806
6	1387	86	10.62493108109
6	1504	87	6.9491995870221
6	1505	88	7.0307207115778
6	1506	89	6.1670688767304
6	1508	90	8.3667534388687
6	1625	91	10.039708831775
6	1626	92	11.964499909719
6	1627	93	14.181108470176
6	1629	94	14.506620045116
6	1752	95	11.211266041189
6	1753	96	6.7759916610693
6	1754	97	9.2468493772115
6	1756	98	11.64434090002
6	1885	99	13.690903065251
6	1886	100	14.880365042242
6	1887	101	14.446448143797
6	1889	102	14.316010406583
6	2024	103	14.549390520009
5	2	1	26.6
5	4	2	26.6
5	19	3	26.6
5	20	4	26.6
5	21	5	26.6
5	23	6	26.6
5	44	7	26.6
5	45	8	26.6
5	46	9	26.6
5	48	10	26.6
5	69	11	26.6
5	70	12	26.6
5	71	13	26.6
5	73	14	26.6
5	100	15	26.6
5	101	16	26.6
5	102	17	26.6
5	104	18	26.6
5	137	19	26.6
5	138	20	26.6
5	139	21	26.6
5	141	22	26.6
5	180	23	26.6
5	181	24	26.6
5	182	25	29.243860076476
5	184	26	35.358178454315
5	229	27	43.17590948503
5	230	28	53.008672467598
5	231	29	64.571369967599
5	233	30	78.199844427174
5	278	31	92.508352739054
5	279	32	107.6753701344
5	280	33	123.03785252818
5	282	34	137.4120981561
5	333	35	152.86737497254
5	334	36	168.11828896134
5	335	37	182.60956536373
5	337	38	197.56458412093
5	394	39	212.94947623639
5	395	40	227.91146339655
5	396	41	242.30031434269
5	398	42	257.21024991163
5	461	43	272.13092331959
5	462	44	287.23547583345
5	463	45	301.8614023744
5	465	46	313.77976803073
5	534	47	321.48006108413
5	535	48	323.4
5	536	49	323.4
5	538	50	323.4
5	607	51	323.4
5	608	52	323.4
5	609	53	323.4
5	611	54	323.4
5	686	55	323.4
5	687	56	323.4
5	688	57	323.4
5	690	58	323.4
5	771	59	323.4
5	772	60	323.4
5	773	61	323.4
5	775	62	323.4
5	862	63	323.4
5	863	64	323.4
5	864	65	323.4
5	866	66	323.4
5	959	67	323.4
5	960	68	323.4
5	961	69	323.4
5	963	70	323.4
5	1056	71	323.16292533518
5	1057	72	319.17409112839
5	1058	73	313.05251780392
5	1060	74	304.33831126386
5	1159	75	294.06137344635
5	1160	76	282.23740302968
5	1161	77	268.87995505939
5	1163	78	253.85150455536
5	1268	79	238.50476237512
5	1269	80	224.07660319887
5	1270	81	209.67465919986
5	1272	82	195.01473871641
5	1383	83	179.6081457149
5	1384	84	164.75982810383
5	1385	85	149.81683423902
5	1387	86	139.19190315793
5	1504	87	132.24270357091
5	1505	88	126.88882519863
5	1506	89	126.6
5	1508	90	126.6
5	1625	91	126.6
5	1626	92	126.6
5	1627	93	126.6
5	1629	94	126.6
5	1752	95	126.6
5	1753	96	126.6
5	1754	97	126.6
5	1756	98	126.6
5	1885	99	126.6
5	1886	100	126.6
5	1887	101	126.6
5	1889	102	126.6
5	2024	103	126.6
4	2	1	33.3
4	4	2	35.60972159754
4	19	3	40.094790188968
4	20	4	46.499746429548
4	21	5	55.432309458381
4	23	6	66.248960596346
4	44	7	79.264409912471
4	45	8	94.588863962067
4	46	9	109.17846758204
4	48	10	124.48379773749
4	69	11	138.85374651306
4	70	12	153.97608900679
4	71	13	169.24518490346
4	73	14	184.06082912481
4	100	15	198.46873213007
4	101	16	213.72516210899
4	102	17	228.07504483194
4	104	18	243.5171094919
4	137	19	258.07479862828
4	138	20	273.358135604
4	139	21	288.13393112225
4	141	22	303.26488675846
4	180	23	314.61998615516
4	181	24	321.5864785336
4	182	25	323.4
4	184	26	323.4
4	229	27	323.4
4	230	28	323.4
4	231	29	323.4
4	233	30	323.4
4	278	31	323.4
4	279	32	323.4
4	280	33	323.4
4	282	34	323.4
4	333	35	323.4
4	334	36	323.4
4	335	37	323.4
4	337	38	323.4
4	394	39	323.4
4	395	40	323.4
4	396	41	323.4
4	398	42	323.4
4	461	43	323.4
4	462	44	323.4
4	463	45	323.4
4	465	46	323.4
4	534	47	323.4
4	535	48	320.70702084227
4	536	49	315.0611621184
4	538	50	306.92923409064
4	607	51	296.9794045411
4	608	52	285.36146638243
4	609	53	272.3813630837
4	611	54	257.94814255788
4	686	55	242.62886103943
4	687	56	228.24541058594
4	688	57	212.88957451864
4	690	58	198.61201310555
4	771	59	183.28759996313
4	772	60	168.38552058828
4	773	61	153.56142484246
4	775	62	138.30665138126
4	862	63	123.78446547224
4	863	64	108.92204061503
4	864	65	93.916838662016
4	866	66	79.577544411644
4	959	67	65.189757609723
4	960	68	50.871465681227
4	961	69	38.745355207569
4	963	70	31.057234384018
4	1056	71	27.271542225297
4	1057	72	26.6
4	1058	73	26.6
4	1060	74	26.6
4	1159	75	26.6
4	1160	76	26.6
4	1161	77	26.6
4	1163	78	26.6
4	1268	79	26.6
4	1269	80	26.6
4	1270	81	26.6
4	1272	82	26.6
4	1383	83	26.6
4	1384	84	26.6
4	1385	85	26.6
4	1387	86	26.6
4	1504	87	26.6
4	1505	88	30.178223609615
4	1506	89	36.325086017396
4	1508	90	44.691839456265
4	1625	91	54.73154828804
4	1626	92	66.696048197759
4	1627	93	80.877156667935
4	1629	94	95.383776713051
4	1752	95	106.59504275424
4	1753	96	113.37103441531
4	1754	97	122.61788379252
4	1756	98	134.26222469254
4	1885	99	147.95312775779
4	1886	100	162.83349280003
4	1887	101	177.27994094383
4	1889	102	191.59595135041
4	2024	103	206.14534187042
15	45	8	3.7441301504186
15	46	9	5.3650487650268
15	48	10	5.1581538630958
15	69	11	6.120114085948
15	70	12	9.3008715737291
15	71	13	7.8327640887679
15	73	14	0.973
15	100	15	3.6563580711634
15	101	16	4.6147202883165
15	102	17	1.8308352204317
15	104	18	0.973
15	137	19	2.0765432260004
15	138	20	3.6977995251283
15	139	21	0.973
15	141	22	4.5848251224324
15	180	23	0.973
15	181	24	3.8110732324652
15	182	25	0.973
15	184	26	4.128048036446
15	229	27	1.1697186695294
15	230	28	4.3240860597392
15	231	29	0.973
15	233	30	0.973
15	278	31	0.973
15	279	32	1.7251821759435
15	280	33	3.0851484880584
15	282	34	3.9964731419788
15	333	35	6.6448044305604
15	334	36	6.3743009657897
15	335	37	10.181748679049
15	337	38	2.6687773351874
15	394	39	1.5421124333218
15	395	40	3.1752052173502
15	396	41	2.8777094187875
15	398	42	1.1078352564271
15	461	43	2.2843294398097
15	462	44	2.8476840155829
15	463	45	4.0728520625002
15	465	46	1.6874747182932
15	534	47	0.973
15	535	48	2.7400453631867
15	536	49	5.2727882953241
15	538	50	2.2373439004824
15	607	51	0.973
15	608	52	2.5225471525298
15	609	53	4.7236153051127
15	611	54	0.973
15	686	55	0.973
15	687	56	0.973
15	688	57	1.5677427929246
15	690	58	3.3478649496575
15	771	59	6.1639072957874
15	772	60	6.7430735367532
15	773	61	5.5997010059542
15	775	62	9.7526814210032
15	862	63	2.9926023203237
15	863	64	3.0838541775948
15	864	65	0.973
15	866	66	2.6097441560404
15	959	67	1.6512766949218
15	960	68	3.2629692250176
15	961	69	0.973
15	963	70	0.973
15	1056	71	2.7508679154191
15	1057	72	4.8879205318676
15	1058	73	1.9184609101143
15	1060	74	1.9638331015898
15	1159	75	0.973
15	1160	76	0.973
15	1161	77	3.309362392908
15	1163	78	2.3797856148989
15	1268	79	0.973
15	1269	80	0.973
15	1270	81	0.973
15	1272	82	3.9123096050728
15	1383	83	4.8153362768613
15	1384	84	6.0149623288844
15	1385	85	7.5497502797228
15	1387	86	8.4996558180561
15	1504	87	4.6159924981599
15	1505	88	0.973
15	1506	89	0.973
15	1508	90	2.4524588715977
15	1625	91	4.252302159523
15	1626	92	0.973
15	1627	93	2.2206827979797
15	1629	94	4.9734083808519
15	1752	95	0.973
15	1753	96	0.973
15	1754	97	0.973
15	1756	98	0.973
15	1885	99	2.0889610570219
15	1886	100	4.3114995101775
15	1887	101	7.8182838975256
15	1889	102	9.099228879719
15	2024	103	7.5780157291756
15	2025	104	1.86754590388
15	2026	105	0.973
15	2028	106	0.973
15	2157	107	4.7281023731771
15	2158	108	6.6499157908357
15	2159	109	6.0685083471386
15	2161	110	9.1359385114361
15	2290	111	2.1975082715733
15	2291	112	2.4552324456598
15	2292	113	0.973
15	2294	114	2.569865291701
14	45	8	2.1310525114881
14	46	9	2.3099947745679
14	48	10	1.7046559911221
14	69	11	1.7500303386245
14	70	12	2.3871491486207
14	71	13	1.6472534477072
14	73	14	-1.1318917948287
14	100	15	0.49052832478192
14	101	16	0.71833702346776
14	102	17	-0.073821693193167
14	104	18	-0.96059726236854
14	137	19	0.025786624359899
14	138	20	0.4897908719955
14	139	21	-0.31994334983174
14	141	22	0.71934156699572
14	180	23	-0.90516141969711
14	181	24	0.52218335485086
14	182	25	-0.49883059237618
14	184	26	0.60778497075662
14	229	27	-0.25637518370058
14	230	28	0.63643638743088
14	231	29	-3.1333473127059
14	233	30	-4.5
14	278	31	-4.0273571859001
14	279	32	0.54255574459676
14	280	33	1.4684856106061
14	282	34	1.6237992578885
14	333	35	2.3594480948756
14	334	36	1.8031567084137
14	335	37	2.5744401467033
14	337	38	0.21107290802355
14	394	39	-0.13362711460795
14	395	40	0.35464159017429
14	396	41	0.25202148021199
14	398	42	-0.2723212037934
14	461	43	0.082125280471519
14	462	44	0.24066877767909
14	463	45	0.56403360827826
14	465	46	-0.1139339807909
14	534	47	-1.085014008428
14	535	48	0.2275443459861
14	536	49	0.91190828250255
14	538	50	0.040990146598778
14	607	51	-1.0258419388207
14	608	52	0.15749642171431
14	609	53	0.76015820933972
14	611	54	-2.0005766517792
14	686	55	-4.5
14	687	56	-4.5
14	688	57	0.30485439160839
14	690	58	1.5504331293283
14	771	59	2.4814004011219
14	772	60	2.1278210264863
14	773	61	1.4020640265662
14	775	62	2.3574761475436
14	862	63	0.28636536401062
14	863	64	0.29801617639605
14	864	65	-0.48179442544934
14	866	66	0.17277135732584
14	959	67	-0.11054366151802
14	960	68	0.35388939930126
14	961	69	-0.40353552151937
14	963	70	-0.30952287092805
14	1056	71	0.22614111166913
14	1057	72	0.80246980676893
14	1058	73	-0.047447406547144
14	1060	74	-0.033458132599481
14	1159	75	-0.65579736705404
14	1160	76	-0.35365637154318
14	1161	77	0.38963102607522
14	1163	78	0.10558064868674
14	1268	79	-1.0515118819505
14	1269	80	-4.448445317056
14	1270	81	-4.4699367934605
14	1272	82	1.8173973921686
14	1383	83	1.8161164063029
14	1384	84	1.9168310374254
14	1385	85	2.0669206749881
14	1387	86	1.9969190652715
14	1504	87	0.74157023509795
14	1505	88	-0.31657126762438
14	1506	89	-0.28662586740684
14	1508	90	0.13074384126812
14	1625	91	0.62447927745525
14	1626	92	-1.036605696613
14	1627	93	0.072984927520157
14	1629	94	0.84273886648007
14	1752	95	-0.71001305766404
14	1753	96	-2.276973568991
14	1754	97	-4.5
14	1756	98	-0.8481246358715
14	1885	99	0.42064416937064
14	1886	100	1.4682693119626
14	1887	101	2.4589511863887
14	1889	102	2.3557021918707
14	2024	103	1.6027624967445
14	2025	104	-0.056410788348876
14	2026	105	-3.5825037936028
14	2028	106	-3.6810195609811
14	2157	107	1.5406996498117
14	2158	108	1.9582808221225
14	2159	109	1.471595842368
14	2161	110	2.1000355886295
14	2290	111	0.044873258161767
14	2291	112	0.11639375751838
14	2292	113	-0.89129236685112
14	2294	114	0.18003349683713
13	44	7	2.5407174649648
13	45	8	4.6717699764529
13	46	9	6.9817647510208
13	48	10	8.6864207421429
13	69	11	10.436451080767
13	70	12	12.823600229388
13	71	13	14.470853677095
13	73	14	13.338961882267
13	100	15	13.829490207049
13	101	16	14.547827230516
13	102	17	14.474005537323
13	104	18	13.513408274955
13	137	19	13.539194899314
13	138	20	14.02898577131
13	139	21	13.709042421478
13	141	22	14.428383988474
13	180	23	13.523222568777
13	181	24	14.045405923628
13	182	25	13.546575331252
13	184	26	14.154360302008
13	229	27	13.897985118308
13	230	28	14.534421505738
13	231	29	11.401074193033
13	233	30	6.9010741930325
13	278	31	2.8737170071325
13	279	32	3.4162727517292
13	280	33	4.8847583623354
13	282	34	6.5085576202238
13	333	35	8.8680057150994
13	334	36	10.671162423513
13	335	37	13.245602570216
13	337	38	13.45667547824
13	394	39	13.323048363632
13	395	40	13.677689953806
13	396	41	13.929711434018
13	398	42	13.657390230225
13	461	43	13.739515510696
13	462	44	13.980184288375
13	463	45	14.544217896654
13	465	46	14.430283915863
13	534	47	13.345269907435
13	535	48	13.572814253421
13	536	49	14.484722535924
13	538	50	14.525712682522
13	607	51	13.499870743702
13	608	52	13.657367165416
13	609	53	14.417525374756
13	611	54	12.416948722976
13	686	55	7.9169487229765
13	687	56	3.4169487229765
13	688	57	3.7218031145849
13	690	58	5.2722362439132
13	771	59	7.7536366450351
13	772	60	9.8814576715215
13	773	61	11.283521698088
13	775	62	13.640997845631
13	862	63	13.927363209642
13	863	64	14.225379386038
13	864	65	13.743584960589
13	866	66	13.916356317914
13	959	67	13.805812656396
13	960	68	14.159702055698
13	961	69	13.756166534178
13	963	70	13.44664366325
13	1056	71	13.672784774919
13	1057	72	14.475254581688
13	1058	73	14.427807175141
13	1060	74	14.394349042542
13	1159	75	13.738551675488
13	1160	76	13.384895303945
13	1161	77	13.77452633002
13	1163	78	13.880106978706
13	1268	79	12.828595096756
13	1269	80	8.3801497797
13	1270	81	3.9102129862395
13	1272	82	5.7276103784081
13	1383	83	7.543726784711
13	1384	84	9.4605578221364
13	1385	85	11.527478497125
13	1387	86	13.524397562396
13	1504	87	14.265967797494
13	1505	88	13.94939652987
13	1506	89	13.662770662463
13	1508	90	13.793514503731
13	1625	91	14.417993781186
13	1626	92	13.381388084573
13	1627	93	13.454373012093
13	1629	94	14.297111878573
13	1752	95	13.587098820909
13	1753	96	11.310125251918
13	1754	97	6.8101252519183
13	1756	98	5.9620006160468
13	1885	99	6.3826447854174
13	1886	100	7.8509140973801
13	1887	101	10.309865283769
13	1889	102	12.665567475639
13	2024	103	14.268329972384
13	2025	104	14.211919184035
13	2026	105	10.629415390432
13	2028	106	6.9483958294513
13	2157	107	8.489095479263
13	2158	108	10.447376301385
13	2159	109	11.918972143753
13	2161	110	14.019007732383
13	2290	111	14.063880990545
13	2291	112	14.180274748063
13	2292	113	13.288982381212
13	2294	114	13.469015878049
12	23	6	26.6
12	44	7	26.6
12	45	8	26.6
12	46	9	26.6
12	48	10	26.6
12	69	11	26.6
12	70	12	26.6
12	71	13	26.6
12	73	14	26.6
12	100	15	26.6
12	101	16	26.6
12	102	17	26.6
12	104	18	26.6
12	137	19	26.6
12	138	20	26.6
12	139	21	26.6
12	141	22	26.6
12	180	23	26.6
12	181	24	26.6
12	182	25	26.6
12	184	26	26.6
12	229	27	26.6
12	230	28	26.6
12	231	29	26.6
12	233	30	26.6
12	278	31	28.020508192741
12	279	32	31.434987029155
12	280	33	36.319745391491
12	282	34	42.828303011714
12	333	35	51.696308726814
12	334	36	62.367471150327
12	335	37	75.613073720543
12	337	38	89.069749198783
12	394	39	102.39279756242
12	395	40	116.07048751622
12	396	41	130.00019895024
12	398	42	143.65758918046
12	461	43	157.39710469116
12	462	44	171.37728897954
12	463	45	185.92150687619
12	465	46	200.35179079205
12	534	47	213.69706069949
12	535	48	227.26987495291
12	536	49	241.75459748883
12	538	50	256.28031017135
12	607	51	269.78018091506
12	608	52	283.43754808047
12	609	53	297.85507345523
12	611	54	310.2720221782
12	686	55	318.18897090118
12	687	56	321.60591962416
12	688	57	323.4
12	690	58	323.4
12	771	59	323.4
12	772	60	323.4
12	773	61	323.4
12	775	62	323.4
12	862	63	323.4
12	863	64	323.4
12	864	65	323.4
12	866	66	323.4
12	959	67	323.4
12	960	68	323.4
12	961	69	323.4
12	963	70	323.4
12	1056	71	323.4
12	1057	72	323.4
12	1058	73	323.4
12	1060	74	323.4
12	1159	75	323.4
12	1160	76	323.4
12	1161	77	323.4
12	1163	78	323.4
12	1268	79	323.4
12	1269	80	323.4
12	1270	81	321.35218464822
12	1272	82	315.62457426981
12	1383	83	308.0808474851
12	1384	84	298.62028966296
12	1385	85	287.09281116584
12	1387	86	273.56841360344
12	1504	87	259.30244580595
12	1505	88	245.35304927608
12	1506	89	231.69027861362
12	1508	90	217.89676410989
12	1625	91	203.4787703287
12	1626	92	190.09738224413
12	1627	93	176.64300923203
12	1629	94	162.34589735346
12	1752	95	148.75879853255
12	1753	96	137.44867328063
12	1754	97	130.65399939777
12	1756	98	126.81309133606
12	1885	99	126.6
12	1886	100	126.6
12	1887	101	126.6
12	1889	102	126.6
12	2024	103	126.6
12	2025	104	126.6
12	2026	105	126.6
12	2028	106	126.6
12	2157	107	126.6
12	2158	108	126.6
12	2159	109	126.6
12	2161	110	126.6
12	2290	111	126.6
12	2291	112	126.6
12	2292	113	126.6
12	2294	114	126.6
11	23	6	33.3
11	44	7	35.840717464965
11	45	8	40.512487441418
11	46	9	47.494252192439
11	48	10	56.180672934582
11	69	11	66.617124015349
11	70	12	79.440724244737
11	71	13	93.911577921832
11	73	14	107.2505398041
11	100	15	121.08003001115
11	101	16	135.62785724166
11	102	17	150.10186277899
11	104	18	163.61527105394
11	137	19	177.15446595326
11	138	20	191.18345172457
11	139	21	204.89249414604
11	141	22	219.32087813452
11	180	23	232.8441007033
11	181	24	246.88950662692
11	182	25	260.43608195817
11	184	26	274.59044226018
11	229	27	288.48842737849
11	230	28	303.02284888423
11	231	29	314.42392307726
11	233	30	321.32499727029
11	278	31	323.37435831325
11	279	32	323.4
11	280	33	323.4
11	282	34	323.4
11	333	35	323.4
11	334	36	323.4
11	335	37	323.4
11	337	38	323.4
11	394	39	323.4
11	395	40	323.4
11	396	41	323.4
11	398	42	323.4
11	461	43	323.4
11	462	44	323.4
11	463	45	323.4
11	465	46	323.4
11	534	47	323.4
11	535	48	323.4
11	536	49	323.4
11	538	50	323.4
11	607	51	323.4
11	608	52	323.4
11	609	53	323.4
11	611	54	323.4
11	686	55	323.4
11	687	56	323.4
11	688	57	320.85227726126
11	690	58	315.58004101734
11	771	59	307.82640437231
11	772	60	297.94494670079
11	773	61	286.6614250027
11	775	62	273.02042715707
11	862	63	259.09306394743
11	863	64	244.86768456139
11	864	65	231.1240996008
11	866	66	217.20774328289
11	959	67	203.40193062649
11	960	68	189.24222857079
11	961	69	175.48606203661
11	963	70	162.03941837336
11	1056	71	148.36663359844
11	1057	72	133.89137901676
11	1058	73	119.46357184161
11	1060	74	105.06922279907
11	1159	75	91.330671123585
11	1160	76	77.94577581964
11	1161	77	64.17124948962
11	1163	78	50.291142510914
11	1268	79	37.462547414158
11	1269	80	29.082397634458
11	1270	81	26.6
11	1272	82	26.6
11	1383	83	26.6
11	1384	84	26.6
11	1385	85	26.6
11	1387	86	26.6
11	1504	87	26.6
11	1505	88	26.6
11	1506	89	26.6
11	1508	90	26.6
11	1625	91	26.6
11	1626	92	26.6
11	1627	93	26.6
11	1629	94	26.6
11	1752	95	26.6
11	1753	96	26.6
11	1754	97	26.82085722889
11	1756	98	30.708360647592
11	1885	99	37.076097372751
11	1886	100	44.927011470131
11	1887	101	55.2368767539
11	1889	102	67.902444229539
11	2024	103	82.170774201923
11	2025	104	96.382693385958
11	2026	105	107.01210877639
11	2028	106	113.96050460584
11	2157	107	122.4496000851
11	2158	108	132.89697638649
11	2159	109	144.81594853024
11	2161	110	158.83495626263
11	2290	111	172.89883725317
11	2291	112	187.07911200123
11	2292	113	200.36809438245
11	2294	114	213.8371102605
22	71	13	2.3335482875517
22	73	14	3.2750740234789
22	100	15	5.5305151189871
22	101	16	7.4096900289162
22	102	17	6.8115550394276
22	104	18	7.9287240185693
22	137	19	2.3155823846966
22	138	20	3.6500511545368
22	139	21	0.973
22	141	22	0.973
22	180	23	3.3841234908829
22	181	24	3.8773537447838
22	182	25	0.973
22	184	26	1.758496975028
22	229	27	4.7036164748476
22	230	28	0.973
22	231	29	4.5231160149702
22	233	30	0.973
22	278	31	1.5293176339574
22	279	32	2.5052449388272
22	280	33	1.2908246173113
22	282	34	3.7293390565604
22	333	35	0.973
22	334	36	0.973
22	335	37	0.973
22	337	38	0.973
22	394	39	2.9566715868384
22	395	40	5.9215713888088
22	396	41	4.8166187025729
22	398	42	4.947957766121
22	461	43	8.7701286227507
22	462	44	6.7780102891459
22	463	45	3.456413821276
22	465	46	0.973
22	534	47	2.8776550210724
22	535	48	0.973
22	536	49	2.6845178645274
22	538	50	2.4031440611461
22	607	51	2.4151944519008
22	608	52	1.3459826629418
22	609	53	3.0069120685229
22	611	54	0.973
22	686	55	3.9125029585014
22	687	56	2.4525523077633
22	688	57	0.973
22	690	58	1.1869064989856
22	771	59	2.7790854999859
22	772	60	0.973
22	773	61	0.973
22	775	62	0.973
22	862	63	0.973
22	863	64	4.3131443822428
22	864	65	4.2682748750483
22	866	66	7.8101752085531
22	959	67	5.6711454858642
22	960	68	6.1130684932051
22	961	69	3.9053756742813
22	963	70	1.3201340222535
22	1056	71	5.8886976599105
22	1057	72	0.973
22	1058	73	1.9170963040503
22	1060	74	1.9220743175222
22	1159	75	1.4677343446567
22	1160	76	2.4763535153529
22	1161	77	3.55161508803
22	1163	78	2.7312225545153
22	1268	79	0.973
22	1269	80	4.3458236154992
22	1270	81	1.9005329961853
22	1272	82	0.973
22	1383	83	5.4188720181829
22	1384	84	1.1315505261128
22	1385	85	0.973
22	1387	86	0.973
22	1504	87	0.973
22	1505	88	0.973
22	1506	89	0.973
22	1508	90	3.4518566884584
22	1625	91	5.4264034495708
22	1626	92	4.464464364476
22	1627	93	5.0240973397253
22	1629	94	6.0722150191749
22	1752	95	8.1582862708464
22	1753	96	0.973
22	1754	97	5.1595030616865
22	1756	98	0.973
22	1885	99	4.0205296594669
22	1886	100	0.973
22	1887	101	0.973
22	1889	102	3.7750495931104
22	2024	103	3.4026209664855
22	2025	104	0.973
22	2026	105	0.973
22	2028	106	0.973
22	2157	107	2.7625032054582
22	2158	108	4.6776243292223
22	2159	109	5.9012922302576
22	2161	110	8.6959587908151
22	2290	111	7.7064946573
22	2291	112	2.9611136379545
22	2292	113	0.973
22	2294	114	0.973
22	2423	115	0.973
22	2424	116	5.0697917419364
22	2425	117	5.0586245566064
22	2427	118	5.1480223504598
22	2550	119	8.7154905870133
22	2551	120	6.2294096597531
22	2552	121	1.4285383810968
22	2554	122	3.4783806717122
22	2677	123	0.973
21	71	13	1.5021020626184
21	73	14	1.7088218681514
21	100	15	2.3776709283935
21	101	16	2.4986099615227
21	102	17	1.8273723290768
21	104	18	1.8668848487083
21	137	19	0.10578453281969
21	138	20	0.48735342789441
21	139	21	-0.46661834295373
21	141	22	-0.33481444607023
21	180	23	0.43032569570933
21	181	24	0.54342587012798
21	182	25	-0.46293245924171
21	184	26	-0.070401139231398
21	229	27	0.76790311017539
21	230	28	-1.0671195195755
21	231	29	0.74205874812323
21	233	30	-0.73372417187784
21	278	31	-0.13241672941949
21	279	32	0.17012820807286
21	280	33	-0.20762225696817
21	282	34	0.53099742892664
21	333	35	-0.79173118615318
21	334	36	-4.5
21	335	37	-4.5
21	337	38	-0.61931498949416
21	394	39	1.4562435342232
21	395	40	2.5651967352023
21	396	41	1.5373951629736
21	398	42	1.3454651284497
21	461	43	2.3120842830511
21	462	44	1.4317230562566
21	463	45	0.40799351031892
21	465	46	-0.3534048106987
21	534	47	0.24410394956358
21	535	48	-0.54423430496827
21	536	49	0.20241330920253
21	538	50	0.11313430701848
21	607	51	0.11240000391845
21	608	52	-0.2018297615461
21	609	53	0.28388725474942
21	611	54	-0.80547373222653
21	686	55	0.56790413092822
21	687	56	0.12470024144277
21	688	57	-0.52700281965081
21	690	58	-0.24250904596411
21	771	59	0.24667410454713
21	772	60	-0.94310969473019
21	773	61	-3.5957188285072
21	775	62	-3.4436680809129
21	862	63	-1.67321576306
21	863	64	2.0651866476284
21	864	65	1.5530665513594
21	866	66	2.5576708041597
21	959	67	1.4162962283241
21	960	68	1.3685983118368
21	961	69	0.60179970188793
21	963	70	-0.19985758236144
21	1056	71	1.1140117062721
21	1057	72	-0.70780138336122
21	1058	73	-0.022383109456859
21	1060	74	-0.02027037453372
21	1159	75	-0.15706161244307
21	1160	76	0.15043613030575
21	1161	77	0.4521095668897
21	1163	78	0.19898101792205
21	1268	79	-0.8118601814378
21	1269	80	0.68294392435346
21	1270	81	-0.040170075232163
21	1272	82	-0.74098174001556
21	1383	83	0.9806703946786
21	1384	84	-0.26825460242107
21	1385	85	-1.3818003288077
21	1387	86	-3.4963014821056
21	1504	87	-4.1978320223978
21	1505	88	-1.4767458592356
21	1506	89	-0.27536655461881
21	1508	90	1.7774733030237
21	1625	91	2.2783586577512
21	1626	92	1.3966369571164
21	1627	93	1.3926841794047
21	1629	94	1.5398462095065
21	1752	95	1.9117803542875
21	1753	96	-0.33126363594755
21	1754	97	0.92457506742794
21	1756	98	-0.3075260666199
21	1885	99	0.56848109106068
21	1886	100	-0.51271472866647
21	1887	101	-0.72930516339838
21	1889	102	0.54438055562787
21	2024	103	0.40582457773853
21	2025	104	-1.9942004918479
21	2026	105	-2.3277598693501
21	2028	106	-4.2180969210482
21	2157	107	0.87216752562672
21	2158	108	1.6391417283332
21	2159	109	1.8031093417434
21	2161	110	2.3465624085627
21	2290	111	1.7097544313908
21	2291	112	0.26971197496168
21	2292	113	-2.0084705643027
21	2294	114	-3.9634890149464
21	2423	115	-3.6265685347811
21	2424	116	2.2324047110509
21	2425	117	1.717495745467
21	2427	118	1.4578853386687
21	2550	119	2.327370282216
21	2551	120	1.3020042837355
21	2552	121	-0.1693393672118
21	2554	122	0.44005585210398
21	2677	123	-0.33776622402947
20	70	12	1.4744299653452
20	71	13	2.9765320279635
20	73	14	4.685353896115
20	100	15	7.0630248245085
20	101	16	9.5616347860312
20	102	17	11.389007115108
20	104	18	13.255891963816
20	137	19	13.361676496636
20	138	20	13.84902992453
20	139	21	13.382411581577
20	141	22	13.047597135506
20	180	23	13.477922831216
20	181	24	14.021348701344
20	182	25	13.558416242102
20	184	26	13.488015102871
20	229	27	14.255918213046
20	230	28	13.18879869347
20	231	29	13.930857441594
20	233	30	13.197133269716
20	278	31	13.064716540296
20	279	32	13.234844748369
20	280	33	13.027222491401
20	282	34	13.558219920328
20	333	35	12.766488734175
20	334	36	8.2664887341745
20	335	37	3.7664887341745
20	337	38	3.1471737446804
20	394	39	4.6034172789035
20	395	40	7.1686140141059
20	396	41	8.7060091770794
20	398	42	10.051474305529
20	461	43	12.36355858858
20	462	44	13.795281644837
20	463	45	14.203275155156
20	465	46	13.849870344457
20	534	47	14.093974294021
20	535	48	13.549739989052
20	536	49	13.752153298255
20	538	50	13.865287605273
20	607	51	13.977687609192
20	608	52	13.775857847646
20	609	53	14.059745102395
20	611	54	13.254271370169
20	686	55	13.822175501097
20	687	56	13.94687574254
20	688	57	13.419872922889
20	690	58	13.177363876925
20	771	59	13.424037981472
20	772	60	12.480928286742
20	773	61	8.8852094582344
20	775	62	5.4415413773215
20	862	63	3.7683256142614
20	863	64	5.8335122618899
20	864	65	7.3865788132492
20	866	66	9.944249617409
20	959	67	11.360545845733
20	960	68	12.72914415757
20	961	69	13.330943859458
20	963	70	13.131086277096
20	1056	71	14.245097983368
20	1057	72	13.537296600007
20	1058	73	13.51491349055
20	1060	74	13.494643116017
20	1159	75	13.337581503574
20	1160	76	13.488017633879
20	1161	77	13.940127200769
20	1163	78	14.139108218691
20	1268	79	13.327248037253
20	1269	80	14.010191961607
20	1270	81	13.970021886375
20	1272	82	13.229040146359
20	1383	83	14.209710541038
20	1384	84	13.941455938617
20	1385	85	12.559655609809
20	1387	86	9.0633541277033
20	1504	87	4.8655221053055
20	1505	88	3.3887762460699
20	1506	89	3.1134096914511
20	1508	90	4.8908829944748
20	1625	91	7.1692416522261
20	1626	92	8.5658786093425
20	1627	93	9.9585627887472
20	1629	94	11.498408998254
20	1752	95	13.410189352541
20	1753	96	13.078925716594
20	1754	97	14.003500784022
20	1756	98	13.695974717402
20	1885	99	14.264455808462
20	1886	100	13.751741079796
20	1887	101	13.022435916398
20	1889	102	13.566816472025
20	2024	103	13.972641049764
20	2025	104	11.978440557916
20	2026	105	9.6506806885659
20	2028	106	5.4325837675177
20	2157	107	6.3047512931444
20	2158	108	7.9438930214776
20	2159	109	9.747002363221
20	2161	110	12.093564771784
20	2290	111	13.803319203174
20	2291	112	14.073031178136
20	2292	113	12.064560613833
20	2294	114	8.1010715988871
20	2423	115	4.474503064106
20	2424	116	6.706907775157
20	2425	117	8.424403520624
20	2427	118	9.8822888592927
20	2550	119	12.209659141509
20	2551	120	13.511663425244
20	2552	121	13.342324058032
20	2554	122	13.782379910136
20	2677	123	13.444613686107
19	69	11	26.6
19	70	12	26.6
19	71	13	26.6
19	73	14	26.6
19	100	15	26.6
19	101	16	26.6
19	102	17	26.6
19	104	18	26.6
19	137	19	26.6
19	138	20	26.6
19	139	21	26.6
19	141	22	26.6
19	180	23	26.6
19	181	24	26.6
19	182	25	26.6
19	184	26	26.6
19	229	27	26.6
19	230	28	26.6
19	231	29	26.6
19	233	30	26.6
19	278	31	26.6
19	279	32	26.6
19	280	33	26.6
19	282	34	26.6
19	333	35	26.6
19	334	36	26.6
19	335	37	27.971751326998
19	337	38	31.116643860093
19	394	39	35.720061138997
19	395	40	42.888675153103
19	396	41	51.594684330182
19	398	42	61.646158635711
19	461	43	74.009717224291
19	462	44	87.804998869128
19	463	45	102.00827402428
19	465	46	115.85814436874
19	534	47	129.95211866276
19	535	48	143.50185865181
19	536	49	157.25401195007
19	538	50	171.11929955534
19	607	51	185.09698716453
19	608	52	198.87284501218
19	609	53	212.93259011457
19	611	54	226.18686148474
19	686	55	240.00903698584
19	687	56	253.95591272838
19	688	57	267.37578565127
19	690	58	280.55314952819
19	771	59	293.97718750966
19	772	60	306.45811579641
19	773	61	315.34332525464
19	775	62	320.78486663196
19	862	63	323.4
19	863	64	323.4
19	864	65	323.4
19	866	66	323.4
19	959	67	323.4
19	960	68	323.4
19	961	69	323.4
19	963	70	323.4
19	1056	71	323.4
19	1057	72	323.4
19	1058	73	323.4
19	1060	74	323.4
19	1159	75	323.4
19	1160	76	323.4
19	1161	77	323.4
19	1163	78	323.4
19	1268	79	323.4
19	1269	80	323.4
19	1270	81	323.4
19	1272	82	323.4
19	1383	83	323.4
19	1384	84	323.4
19	1385	85	323.4
19	1387	86	323.4
19	1504	87	323.4
19	1505	88	321.82869775713
19	1506	89	318.71557488293
19	1508	90	313.82469188845
19	1625	91	306.65545023623
19	1626	92	298.08957162688
19	1627	93	288.13100883814
19	1629	94	276.63259983988
19	1752	95	263.22241048734
19	1753	96	250.14348477075
19	1754	97	236.13998398673
19	1756	98	222.44400926933
19	1885	99	208.17955346086
19	1886	100	194.42781238107
19	1887	101	181.40537646467
19	1889	102	167.83855999264
19	2024	103	153.86591894288
19	2025	104	141.88747838496
19	2026	105	132.2367976964
19	2028	106	127.54676835523
19	2157	107	126.6
19	2158	108	126.6
19	2159	109	126.6
19	2161	110	126.6
19	2290	111	126.6
19	2291	112	126.6
19	2292	113	126.6
19	2294	114	126.6
19	2423	115	126.6
19	2424	116	126.6
19	2425	117	126.6
19	2427	118	126.6
19	2550	119	126.6
19	2551	120	126.6
19	2552	121	126.6
19	2554	122	126.6
19	2677	123	126.6
18	69	11	33.3
18	70	12	34.774429965345
18	71	13	37.750961993309
18	73	14	42.436315889424
18	100	15	49.499340713932
18	101	16	59.060975499963
18	102	17	70.449982615071
18	104	18	83.705874578888
18	137	19	97.067551075524
18	138	20	110.91658100005
18	139	21	124.29899258163
18	141	22	137.34658971714
18	180	23	150.82451254835
18	181	24	164.8458612497
18	182	25	178.4042774918
18	184	26	191.89229259467
18	229	27	206.14821080771
18	230	28	219.33700950119
18	231	29	233.26786694278
18	233	30	246.46500021249
18	278	31	259.52971675279
18	279	32	272.76456150116
18	280	33	285.79178399256
18	282	34	299.35000391289
18	333	35	312.11649264706
18	334	36	320.38298138124
18	335	37	323.36739304671
18	337	38	323.4
18	394	39	323.4
18	395	40	323.4
18	396	41	323.4
18	398	42	323.4
18	461	43	323.4
18	462	44	323.4
18	463	45	323.4
18	465	46	323.4
18	534	47	323.4
18	535	48	323.4
18	536	49	323.4
18	538	50	323.4
18	607	51	323.4
18	608	52	323.4
18	609	53	323.4
18	611	54	323.4
18	686	55	323.4
18	687	56	323.4
18	688	57	323.4
18	690	58	323.4
18	771	59	323.4
18	772	60	323.4
18	773	61	323.4
18	775	62	323.4
18	862	63	321.62680775378
18	863	64	315.79329549189
18	864	65	308.40671667864
18	866	66	298.46246706123
18	959	67	287.1019212155
18	960	68	274.37277705793
18	961	69	261.04183319847
18	963	70	247.91074692137
18	1056	71	233.665648938
18	1057	72	220.128352338
18	1058	73	206.61343884744
18	1060	74	193.11879573143
18	1159	75	179.78121422785
18	1160	76	166.29319659398
18	1161	77	152.35306939321
18	1163	78	138.21396117452
18	1268	79	124.88671313726
18	1269	80	110.87652117565
18	1270	81	96.90649928928
18	1272	82	83.677459142921
18	1383	83	69.467748601884
18	1384	84	55.526292663267
18	1385	85	42.966637053458
18	1387	86	33.903282925755
18	1504	87	29.037760820449
18	1505	88	26.60409967959
18	1506	89	26.6
18	1508	90	26.6
18	1625	91	26.6
18	1626	92	26.6
18	1627	93	26.6
18	1629	94	26.6
18	1752	95	26.6
18	1753	96	26.6
18	1754	97	26.6
18	1756	98	26.6
18	1885	99	26.6
18	1886	100	26.6
18	1887	101	26.6
18	1889	102	26.6
18	2024	103	26.6
18	2025	104	26.6
18	2026	105	26.6
18	2028	106	28.755386074624
18	2157	107	34.870537364263
18	2158	108	42.814430385741
18	2159	109	52.561432748962
18	2161	110	64.654997520746
18	2290	111	78.45831672392
18	2291	112	92.531347902056
18	2292	113	104.59590851589
18	2294	114	112.69698011478
18	2423	115	117.17148317888
18	2424	116	123.87839095404
18	2425	117	132.30279447466
18	2427	118	142.18508333396
18	2550	119	154.39474247547
18	2551	120	167.90640590071
18	2552	121	181.24872995874
18	2554	122	195.03110986888
18	2677	123	208.47572355499
29	104	18	3.6510682565906
29	137	19	4.9083350603566
29	138	20	6.150053450988
29	139	21	5.8857050410128
29	141	22	8.2327540133429
29	180	23	7.4817513151832
29	181	24	0.973
29	182	25	0.973
29	184	26	3.3257816533606
29	229	27	2.6899038813922
29	230	28	1.4963984081707
29	231	29	3.4371263603212
29	233	30	0.973
29	278	31	2.7891918587387
29	279	32	5.0402645919885
29	280	33	0.973
29	282	34	1.5078702306137
29	333	35	0.973
29	334	36	2.0650211758152
29	335	37	1.8943561938746
29	337	38	5.7644140123175
29	394	39	0.973
29	395	40	0.973
29	396	41	0.973
29	398	42	0.973
29	461	43	1.2219301322866
29	462	44	2.6374660094711
29	463	45	4.3482139996828
29	465	46	6.6407617056978
29	534	47	5.6920390962114
29	535	48	5.463822913701
29	536	49	6.0894772447703
29	538	50	2.3219584668241
29	607	51	5.4623077086088
29	608	52	0.973
29	609	53	2.2503789865653
29	611	54	2.0730790001643
29	686	55	0.973
29	687	56	5.3033449301791
29	688	57	0.973
29	690	58	2.3767763176301
29	771	59	1.124127603558
29	772	60	1.8538590998297
29	773	61	3.8979721192422
29	775	62	3.6941736741288
29	862	63	0.973
29	863	64	1.7020721176288
29	864	65	5.2878677174634
29	866	66	0.973
29	959	67	0.973
29	960	68	0.973
29	961	69	0.973
29	963	70	1.5327104426415
29	1056	71	3.5987381988403
29	1057	72	5.6058201458374
29	1058	73	5.0413798455024
29	1060	74	7.9707252931088
29	1159	75	8.2933702049314
29	1160	76	5.1899530450104
29	1161	77	0.973
29	1163	78	4.4804939844102
29	1268	79	0.973
29	1269	80	4.4223700788629
29	1270	81	1.137593625467
29	1272	82	0.973
29	1383	83	2.8905155529287
29	1384	84	1.7444874339225
29	1385	85	2.1785496977782
29	1387	86	2.5630646540389
29	1504	87	3.6591194293245
29	1505	88	0.973
29	1506	89	1.2069929555094
29	1508	90	2.9099966163062
29	1625	91	2.4497110440394
29	1626	92	1.6641787104575
29	1627	93	0.973
29	1629	94	0.973
29	1752	95	0.973
29	1753	96	0.973
29	1754	97	2.7023896998735
29	1756	98	4.4890006358059
29	1885	99	3.8725446042996
29	1886	100	4.9225187155661
29	1887	101	7.598888652865
29	1889	102	6.0344786983141
29	2024	103	6.1565966269639
29	2025	104	0.973
29	2026	105	3.216356225773
29	2028	106	3.3537538162248
29	2157	107	0.973
29	2158	108	3.3456689481725
29	2159	109	0.973
29	2161	110	3.2035678871671
29	2290	111	1.2066292951637
29	2291	112	0.973
29	2292	113	0.973
29	2294	114	0.973
29	2423	115	1.8520911010509
29	2424	116	6.8424187463529
29	2425	117	5.590921427867
29	2427	118	7.8331815492596
29	2550	119	7.4848429868929
29	2551	120	0.973
29	2552	121	0.973
29	2554	122	0.973
29	2677	123	4.5716541401098
29	2678	124	7.06732257451
29	2679	125	6.2615786560983
29	2681	126	5.7202904439565
29	2798	127	0.973
29	2799	128	2.1074660242082
29	2800	129	2.2348786214215
29	2802	130	5.3360615851707
28	104	18	2.3940121726831
28	137	19	2.2746343046427
28	138	20	2.2184665654786
28	139	21	1.6944060695823
28	141	22	2.1300045818323
28	180	23	1.6150624752473
28	181	24	-0.28522908471059
28	182	25	-0.51859088751953
28	184	26	0.40563757698983
28	229	27	0.20227444786578
28	230	28	-0.1538862451911
28	231	29	0.41150335513521
28	233	30	-1.1757338056806
28	278	31	0.26405205149204
28	279	32	0.88727800741326
28	280	33	-0.66348448721692
28	282	34	-0.14225226046983
28	333	35	-0.27385106543079
28	334	36	0.040373584139161
28	335	37	-0.013758909166791
28	337	38	1.0967712174403
28	394	39	-1.2490605081791
28	395	40	-3.3233694209174
28	396	41	-3.0820291676326
28	398	42	-3.6523702057569
28	461	43	-0.032809082604945
28	462	44	1.3481385465944
28	463	45	1.9976775225252
28	465	46	2.4607030845713
28	534	47	1.6305036038626
28	535	48	1.3218831371516
28	536	49	1.3466019376181
28	538	50	0.12357390747213
28	607	51	1.0172409277409
28	608	52	-0.51470679452177
28	609	53	0.079058773536236
28	611	54	0.023951721680351
28	686	55	-0.43729765273165
28	687	56	0.95912287801039
28	688	57	-0.95442967428826
28	690	58	0.12886185280513
28	771	59	-0.26042735723313
28	772	60	-0.026737399538979
28	773	61	0.58282999042422
28	775	62	0.48780657048337
28	862	63	-1.1268349415623
28	863	64	-0.072126518120058
28	864	65	0.98054349010344
28	866	66	-2.0299984043072
28	959	67	-3.6829250671482
28	960	68	-4.5
28	961	69	-0.93774546202736
28	963	70	0.37211035408545
28	1056	71	1.8848307949491
28	1057	72	2.3438892292324
28	1058	73	1.6063949572155
28	1060	74	2.2983573178062
28	1159	75	1.9956333255162
28	1160	76	0.92433796625857
28	1161	77	-1.0303446077043
28	1163	78	0.73954816900659
28	1268	79	-0.54888826776296
28	1269	80	0.70897128330544
28	1270	81	-0.26380762632471
28	1272	82	-0.63292049688753
28	1383	83	0.2845888472395
28	1384	84	-0.069692306639627
28	1385	85	0.06362157398835
28	1387	86	0.17546369810589
28	1504	87	0.47984591007698
28	1505	88	-0.79868635148741
28	1506	89	-0.23366038375534
28	1508	90	0.29524065193255
28	1625	91	0.14527747551911
28	1626	92	-0.095504828286357
28	1627	93	-3.2403830741047
28	1629	94	-4.0226386434166
28	1752	95	-2.7081742116343
28	1753	96	-0.65078073237091
28	1754	97	1.4045393156353
28	1756	98	2.0607199682854
28	1885	99	1.312135837879
28	1886	100	1.5264444440836
28	1887	101	2.1637843629112
28	1889	102	1.3698618403403
28	2024	103	1.2465864134328
28	2025	104	-0.49453236132395
28	2026	105	0.36845311236102
28	2028	106	0.38728844607249
28	2157	107	-0.76571654437576
28	2158	108	0.40608593602665
28	2159	109	-0.68115719044581
28	2161	110	0.3803823152557
28	2290	111	-0.23590321561787
28	2291	112	-2.8085064983323
28	2292	113	-3.7544297395973
28	2294	114	-1.0446089486126
28	2423	115	0.31298952847719
28	2424	116	2.5903387362603
28	2425	117	1.6107781668426
28	2427	118	2.0490346808452
28	2550	119	1.6508302621172
28	2551	120	-0.80036151548848
28	2552	121	-0.71344227320791
28	2554	122	-4.5
28	2677	123	1.348872832139
28	2678	124	1.9853568610735
28	2679	125	1.4471580943558
28	2681	126	1.1299313376685
28	2798	127	-0.66233104367275
28	2799	128	0.052080171462149
28	2800	129	0.089295473415405
28	2802	130	0.96766375750303
27	102	17	1.6605673349462
27	104	18	4.0545795076294
27	137	19	6.3292138122721
27	138	20	8.5476803777507
27	139	21	10.242086447333
27	141	22	12.372091029165
27	180	23	13.987153504413
27	181	24	13.701924419702
27	182	25	13.183333532183
27	184	26	13.588971109172
27	229	27	13.791245557038
27	230	28	13.637359311847
27	231	29	14.048862666982
27	233	30	12.873128861302
27	278	31	13.137180912794
27	279	32	14.024458920207
27	280	33	13.36097443299
27	282	34	13.21872217252
27	333	35	12.944871107089
27	334	36	12.985244691229
27	335	37	12.971485782062
27	337	38	14.068256999502
27	394	39	12.819196491323
27	395	40	9.4958270704054
27	396	41	6.4137979027729
27	398	42	2.761427697016
27	461	43	2.7286186144111
27	462	44	4.0767571610055
27	463	45	6.0744346835307
27	465	46	8.535137768102
27	534	47	10.165641371965
27	535	48	11.487524509116
27	536	49	12.834126446734
27	538	50	12.957700354206
27	607	51	13.974941281947
27	608	52	13.460234487426
27	609	53	13.539293260962
27	611	54	13.563244982642
27	686	55	13.12594732991
27	687	56	14.085070207921
27	688	57	13.130640533633
27	690	58	13.259502386438
27	771	59	12.999075029205
27	772	60	12.972337629666
27	773	61	13.55516762009
27	775	62	14.042974190573
27	862	63	12.916139249011
27	863	64	12.844012730891
27	864	65	13.824556220994
27	866	66	11.794557816687
27	959	67	8.1116327495389
27	960	68	3.6116327495389
27	961	69	2.6738872875116
27	963	70	3.045997641597
27	1056	71	4.9308284365461
27	1057	72	7.2747176657785
27	1058	73	8.8811126229941
27	1060	74	11.1794699408
27	1159	75	13.175103266317
27	1160	76	14.099441232575
27	1161	77	13.069096624871
27	1163	78	13.808644793877
27	1268	79	13.259756526114
27	1269	80	13.96872780942
27	1270	81	13.704920183095
27	1272	82	13.071999686208
27	1383	83	13.356588533447
27	1384	84	13.286896226808
27	1385	85	13.350517800796
27	1387	86	13.525981498902
27	1504	87	14.005827408979
27	1505	88	13.207141057491
27	1506	89	12.973480673736
27	1508	90	13.268721325669
27	1625	91	13.413998801188
27	1626	92	13.318493972901
27	1627	93	10.078110898797
27	1629	94	6.05547225538
27	1752	95	3.3472980437456
27	1753	96	2.6965173113747
27	1754	97	4.1010566270101
27	1756	98	6.1617765952955
27	1885	99	7.4739124331745
27	1886	100	9.0003568772581
27	1887	101	11.164141240169
27	1889	102	12.53400308051
27	2024	103	13.780589493942
27	2025	104	13.286057132619
27	2026	105	13.65451024498
27	2028	106	14.041798691052
27	2157	107	13.276082146676
27	2158	108	13.682168082703
27	2159	109	13.001010892257
27	2161	110	13.381393207513
27	2290	111	13.145489991895
27	2291	112	10.336983493563
27	2292	113	6.5825537539654
27	2294	114	5.5379448053528
27	2423	115	5.85093433383
27	2424	116	8.4412730700903
27	2425	117	10.052051236933
27	2427	118	12.101085917778
27	2550	119	13.751916179895
27	2551	120	12.951554664407
27	2552	121	12.238112391199
27	2554	122	7.738112391199
27	2677	123	9.086985223338
27	2678	124	11.072342084412
27	2679	125	12.519500178767
27	2681	126	13.649431516436
27	2798	127	12.987100472763
27	2799	128	13.039180644225
27	2800	129	13.128476117641
27	2802	130	14.096139875144
26	101	16	26.6
26	102	17	26.6
26	104	18	26.6
26	137	19	26.6
26	138	20	26.6
26	139	21	26.6
26	141	22	26.6
26	180	23	26.6
26	181	24	26.6
26	182	25	26.6
26	184	26	26.6
26	229	27	26.6
26	230	28	26.6
26	231	29	26.6
26	233	30	26.6
26	278	31	26.6
26	279	32	26.6
26	280	33	26.6
26	282	34	26.6
26	333	35	26.6
26	334	36	26.6
26	335	37	26.6
26	337	38	26.6
26	394	39	26.6
26	395	40	26.6
26	396	41	26.6
26	398	42	27.368472358241
26	461	43	30.068260266056
26	462	44	34.145017427061
26	463	45	40.219452110592
26	465	46	48.754589878694
26	534	47	58.920231250658
26	535	48	70.407755759774
26	536	49	83.241882206509
26	538	50	96.199582560715
26	607	51	110.17452384266
26	608	52	123.63475833009
26	609	53	137.17405159105
26	611	54	150.73729657369
26	686	55	163.8632439036
26	687	56	177.94831411152
26	688	57	191.07895464516
26	690	58	204.33845703159
26	771	59	217.3375320608
26	772	60	230.30986969046
26	773	61	243.86503731055
26	775	62	257.90801150113
26	862	63	270.82415075014
26	863	64	283.66816348103
26	864	65	297.49271970202
26	866	66	309.28727751871
26	959	67	317.39891026825
26	960	68	321.01054301779
26	961	69	323.30161618923
26	963	70	323.4
26	1056	71	323.4
26	1057	72	323.4
26	1058	73	323.4
26	1060	74	323.4
26	1159	75	323.4
26	1160	76	323.4
26	1161	77	323.4
26	1163	78	323.4
26	1268	79	323.4
26	1269	80	323.4
26	1270	81	323.4
26	1272	82	323.4
26	1383	83	323.4
26	1384	84	323.4
26	1385	85	323.4
26	1387	86	323.4
26	1504	87	323.4
26	1505	88	323.4
26	1506	89	323.4
26	1508	90	323.4
26	1625	91	323.4
26	1626	92	323.4
26	1627	93	323.4
26	1629	94	323.4
26	1752	95	322.01507521606
26	1753	96	319.3207074553
26	1754	97	315.21965082828
26	1756	98	309.05787423299
26	1885	99	301.58396179981
26	1886	100	292.58360492256
26	1887	101	281.41946368239
26	1889	102	268.88546060188
26	2024	103	255.10487110794
26	2025	104	241.81881397532
26	2026	105	228.16430373034
26	2028	106	214.12250503929
26	2157	107	200.84642289261
26	2158	108	187.16425480991
26	2159	109	174.16324391765
26	2161	110	160.78185071014
26	2290	111	147.63636071824
26	2291	112	137.29937722468
26	2292	113	130.73150026408
26	2294	114	126.88414282563
26	2423	115	126.6
26	2424	116	126.6
26	2425	117	126.6
26	2427	118	126.6
26	2550	119	126.6
26	2551	120	126.6
26	2552	121	126.6
26	2554	122	126.6
26	2677	123	126.6
26	2678	124	126.6
26	2679	125	126.6
26	2681	126	126.6
26	2798	127	126.6
26	2799	128	126.6
26	2800	129	126.6
26	2802	130	126.6
25	101	16	33.3
25	102	17	34.960567334946
25	104	18	39.015146842576
25	137	19	45.344360654848
25	138	20	53.892041032598
25	139	21	64.134127479931
25	141	22	76.506218509097
25	180	23	90.493372013509
25	181	24	104.19529643321
25	182	25	117.37862996539
25	184	26	130.96760107457
25	229	27	144.7588466316
25	230	28	158.39620594345
25	231	29	172.44506861043
25	233	30	185.31819747174
25	278	31	198.45537838453
25	279	32	212.47983730474
25	280	33	225.84081173773
25	282	34	239.05953391025
25	333	35	252.00440501734
25	334	36	264.98964970856
25	335	37	277.96113549063
25	337	38	292.02939249013
25	394	39	304.84858898145
25	395	40	314.34441605186
25	396	41	320.75821395463
25	398	42	323.22108341494
25	461	43	323.4
25	462	44	323.4
25	463	45	323.4
25	465	46	323.4
25	534	47	323.4
25	535	48	323.4
25	536	49	323.4
25	538	50	323.4
25	607	51	323.4
25	608	52	323.4
25	609	53	323.4
25	611	54	323.4
25	686	55	323.4
25	687	56	323.4
25	688	57	323.4
25	690	58	323.4
25	771	59	323.4
25	772	60	323.4
25	773	61	323.4
25	775	62	323.4
25	862	63	323.4
25	863	64	323.4
25	864	65	323.4
25	866	66	323.4
25	959	67	323.4
25	960	68	323.4
25	961	69	322.4886866754
25	963	70	319.4495720531
25	1056	71	314.51874361656
25	1057	72	307.24402595078
25	1058	73	298.36291332778
25	1060	74	287.18344338698
25	1159	75	274.00834012067
25	1160	76	259.90889888809
25	1161	77	246.83980226322
25	1163	78	233.03115746934
25	1268	79	219.77140094323
25	1269	80	205.80267313381
25	1270	81	192.09775295072
25	1272	82	179.02575326451
25	1383	83	165.66916473106
25	1384	84	152.38226850425
25	1385	85	139.03175070346
25	1387	86	125.50576920456
25	1504	87	111.49994179558
25	1505	88	98.292800738085
25	1506	89	85.319320064349
25	1508	90	72.050598738681
25	1625	91	58.636599937493
25	1626	92	45.318105964592
25	1627	93	35.239995065795
25	1629	94	29.184522810415
25	1752	95	26.630725030866
25	1753	96	26.6
25	1754	97	26.6
25	1756	98	26.6
25	1885	99	26.6
25	1886	100	26.6
25	1887	101	26.6
25	1889	102	26.6
25	2024	103	26.6
25	2025	104	26.6
25	2026	105	26.6
25	2028	106	26.6
25	2157	107	26.6
25	2158	108	26.6
25	2159	109	26.6
25	2161	110	26.6
25	2290	111	26.6
25	2291	112	26.6
25	2292	113	26.80978567656
25	2294	114	30.21100022059
25	2423	115	36.04205566847
25	2424	116	44.48332873856
25	2425	117	54.535379975493
25	2427	118	66.636465893271
25	2550	119	80.388382073167
25	2551	120	93.339936737574
25	2552	121	105.57804912877
25	2554	122	113.31616151997
25	2677	123	122.40314674331
25	2678	124	133.47548882772
25	2679	125	145.99498900649
25	2681	126	159.64442052292
25	2798	127	172.63152099569
25	2799	128	185.67070163991
25	2800	129	198.79917775755
25	2802	130	212.8953176327
36	180	23	3.7397654645435
36	181	24	4.5223036506099
36	182	25	6.7643595444737
36	184	26	5.1529041882568
36	229	27	7.1403389872324
36	230	28	1.5419840603879
36	231	29	2.4013308043841
36	233	30	0.973
36	278	31	4.7758197547907
36	279	32	0.973
36	280	33	1.7933405445355
36	282	34	5.0452813081842
36	333	35	0.973
36	334	36	4.3324196783233
36	335	37	2.4943048025241
36	337	38	0.973
36	394	39	2.1736664705717
36	395	40	1.6396379123997
36	396	41	1.3526517418555
36	398	42	2.6986894931789
36	461	43	2.5286796739272
36	462	44	0.973
36	463	45	2.2008531233738
36	465	46	3.2649541041346
36	534	47	0.973
36	535	48	0.973
36	536	49	0.973
36	538	50	0.973
36	607	51	1.7933233060368
36	608	52	4.576262432462
36	609	53	5.3536235337599
36	611	54	6.6817259080332
36	686	55	7.1711088531253
36	687	56	0.973
36	688	57	3.6140210114633
36	690	58	0.973
36	771	59	3.6737330683133
36	772	60	1.6280488907186
36	773	61	1.5504197467333
36	775	62	0.973
36	862	63	2.7609838427017
36	863	64	2.6436409825541
36	864	65	1.8164522152172
36	866	66	0.973
36	959	67	2.2950752611714
36	960	68	3.1727194179927
36	961	69	1.9251448410942
36	963	70	1.2323325663571
36	1056	71	2.4476261088106
36	1057	72	2.608177426439
36	1058	73	0.973
36	1060	74	5.5990222636694
36	1159	75	0.973
36	1160	76	0.973
36	1161	77	0.973
36	1163	78	0.973
36	1268	79	0.973
36	1269	80	0.973
36	1270	81	3.9374174284035
36	1272	82	4.585103487337
36	1383	83	5.9352790970829
36	1384	84	6.878216137211
36	1385	85	2.7106054706288
36	1387	86	4.46244504463
36	1504	87	0.973
36	1505	88	2.3700069427842
36	1506	89	0.973
36	1508	90	3.9815013951676
36	1625	91	2.3636425501813
36	1626	92	0.973
36	1627	93	3.0856754219919
36	1629	94	1.4434600310802
36	1752	95	2.9232275282019
36	1753	96	3.0445506520908
36	1754	97	0.973
36	1756	98	1.701777021438
36	1885	99	4.361991401673
36	1886	100	2.7191650108239
36	1887	101	0.973
36	1889	102	3.9748625072653
36	2024	103	0.973
36	2025	104	0.973
36	2026	105	2.1331030485775
36	2028	106	0.973
36	2157	107	0.973
36	2158	108	0.973
36	2159	109	1.2129799013207
36	2161	110	3.7656956003711
36	2290	111	4.7930101696784
36	2291	112	5.2681452308727
36	2292	113	7.146613181489
36	2294	114	4.1287351022161
36	2423	115	3.3102824070113
36	2424	116	0.973
36	2425	117	4.94143900446
36	2427	118	0.973
36	2550	119	3.1286421292544
36	2551	120	1.5483040183313
36	2552	121	1.6132018057596
36	2554	122	2.5314457722929
36	2677	123	0.973
36	2678	124	3.4730090455947
36	2679	125	1.5344390378668
36	2681	126	0.973
36	2798	127	0.973
36	2799	128	0.973
36	2800	129	2.3001418617919
36	2802	130	6.0225515675424
36	2919	131	4.7979960361424
36	2920	132	9.1278321363521
36	2921	133	0.973
36	2923	134	2.1181866297233
36	3034	135	1.1965296969431
36	3035	136	0.973
36	3036	137	0.973
36	3038	138	4.1371204061765
36	3149	139	7.1325588543384
36	3150	140	6.2140644764856
36	3151	141	2.4919304795004
36	3153	142	2.5840462132358
36	3264	143	0.973
36	3265	144	2.8494686550402
36	3266	145	1.3283205577239
36	3268	146	0.973
35	180	23	2.3204192137346
35	181	24	2.0191258646315
35	182	25	2.4428576256149
35	184	26	1.4070068893954
35	229	27	1.827392696069
35	230	28	-0.10402103271336
35	231	29	0.18672610882204
35	233	30	-0.89730657555629
35	278	31	0.99075591627043
35	279	32	-1.0531072891783
35	280	33	0.0066981640411541
35	282	34	1.0786475848174
35	333	35	-1.0958705324447
35	334	36	0.86031049673911
35	335	37	0.21361542367376
35	337	38	-0.78159244323615
35	394	39	0.13086742423475
35	395	40	-0.059490445512347
35	396	41	-0.16048902755138
35	398	42	0.31405224585906
35	461	43	0.24103551758453
35	462	44	-0.45344494583551
35	463	45	0.13972130373586
35	465	46	0.48579113502055
35	534	47	-0.51425394916441
35	535	48	-4.5
35	536	49	-3.4523699539505
35	538	50	-1.0668841053207
35	607	51	0.68095497579779
35	608	52	2.3689451505663
35	609	53	2.0787529873429
35	611	54	2.1274157224456
35	686	55	1.9008612716768
35	687	56	-0.35046099897008
35	688	57	0.61504112870898
35	690	58	-0.48751517091878
35	771	59	0.6244304833468
35	772	60	-0.076345707662403
35	773	61	-0.10096146562137
35	775	62	-0.77564452383667
35	862	63	0.34638873778749
35	863	64	0.28782125965227
35	864	65	-0.0038678033743054
35	866	66	-0.70788927008398
35	959	67	0.18891549136024
35	960	68	0.47767477943562
35	961	69	0.03470881204121
35	963	70	-0.2072842689231
35	1056	71	0.21862983305473
35	1057	72	0.26139163677581
35	1058	73	-1.0574431409128
35	1060	74	1.2652110416675
35	1159	75	-0.41250489971135
35	1160	76	-0.48201528668869
35	1161	77	-3.485974306811
35	1163	78	-4.2052658921573
35	1268	79	-0.29337473270376
35	1269	80	-0.41276008877903
35	1270	81	2.1120537927141
35	1272	82	1.8657483733958
35	1383	83	2.0114331793971
35	1384	84	1.9536190949846
35	1385	85	0.34311852720217
35	1387	86	0.89147783059161
35	1504	87	-0.63419169560075
35	1505	88	0.195214189752
35	1506	89	-0.31517572712619
35	1508	90	0.72906742927153
35	1625	91	0.16653907869477
35	1626	92	-1.2456357804593
35	1627	93	0.46360077087302
35	1629	94	-0.12763252530713
35	1752	95	0.38801261545159
35	1753	96	0.40442130255979
35	1754	97	-1.0589511203114
35	1756	98	-0.024986707535572
35	1885	99	0.87592452911194
35	1886	100	0.28883526041172
35	1887	101	-0.8522137787193
35	1889	102	0.72639901714865
35	2024	103	-0.40683846771717
35	2025	104	-0.67254323768429
35	2026	105	0.13288978713099
35	2028	106	-1.3943338253086
35	2157	107	-4.5
35	2158	108	-3.079448199267
35	2159	109	-0.0052122445544227
35	2161	110	2.2720492665889
35	2290	111	2.1138245632872
35	2291	112	1.8299438273534
35	2292	113	2.137296285294
35	2294	114	0.85129736000323
35	2423	115	0.51352782568429
35	2424	116	-0.81661812535022
35	2425	117	1.0543835456716
35	2427	118	-0.49215117935091
35	2550	119	0.43775268041063
35	2551	120	-0.10314684582409
35	2552	121	-0.078773786243984
35	2554	122	0.23011230169796
35	2677	123	-0.68112811925821
35	2678	124	0.56159456965979
35	2679	125	-0.10634922150057
35	2681	126	-1.9290428757112
35	2798	127	-3.3925294404849
35	2799	128	-1.7342911597292
35	2800	129	0.68246731832623
35	2802	130	2.3616525236284
35	2919	131	1.4128213726915
35	2920	132	2.5535414493876
35	2921	133	-0.32227964796119
35	2923	134	0.10748723866418
35	3034	135	-0.21867562639527
35	3035	136	-0.59114504345047
35	3036	137	-4.0909749315237
35	3038	138	1.3320558720035
35	3149	139	2.1948434684426
35	3150	140	1.5409202887123
35	3151	141	0.22133343261667
35	3153	142	0.24088888948318
35	3264	143	-0.42134303017519
35	3265	144	0.33563351768534
35	3266	145	-0.17985355730634
35	3268	146	-0.91650272512343
34	141	22	1.9964566827752
34	180	23	4.3168758965097
34	181	24	6.3360017611412
34	182	25	8.7788593867561
34	184	26	10.185866276151
34	229	27	12.013258972221
34	230	28	11.909237939507
34	231	29	12.095964048329
34	233	30	11.198657472773
34	278	31	12.189413389043
34	279	32	11.136306099865
34	280	33	11.143004263906
34	282	34	12.221651848724
34	333	35	11.125781316279
34	334	36	11.986091813018
34	335	37	12.199707236692
34	337	38	11.418114793456
34	394	39	11.54898221769
34	395	40	11.489491772178
34	396	41	11.329002744627
34	398	42	11.643054990486
34	461	43	11.88409050807
34	462	44	11.430645562235
34	463	45	11.570366865971
34	465	46	12.056158000991
34	534	47	11.541904051827
34	535	48	7.0419040518267
34	536	49	3.5895340978763
34	538	50	2.5226499925555
34	607	51	3.2036049683533
34	608	52	5.5725501189196
34	609	53	7.6513031062625
34	611	54	9.7787188287081
34	686	55	11.679580100385
34	687	56	11.329119101415
34	688	57	11.944160230124
34	690	58	11.456645059205
34	771	59	12.081075542552
34	772	60	12.004729834889
34	773	61	11.903768369268
34	775	62	11.128123845431
34	862	63	11.474512583219
34	863	64	11.762333842871
34	864	65	11.758466039497
34	866	66	11.050576769413
34	959	67	11.239492260773
34	960	68	11.717167040209
34	961	69	11.75187585225
34	963	70	11.544591583327
34	1056	71	11.763221416382
34	1057	72	12.024613053157
34	1058	73	10.967169912245
34	1060	74	12.232380953912
34	1159	75	11.819876054201
34	1160	76	11.337860767512
34	1161	77	7.851886460701
34	1163	78	3.6466205685437
34	1268	79	3.3532458358399
34	1269	80	2.9404857470609
34	1270	81	5.052539539775
34	1272	82	6.9182879131708
34	1383	83	8.9297210925679
34	1384	84	10.883340187553
34	1385	85	11.226458714755
34	1387	86	12.117936545346
34	1504	87	11.483744849746
34	1505	88	11.678959039498
34	1506	89	11.363783312371
34	1508	90	12.092850741643
34	1625	91	12.259389820338
34	1626	92	11.013754039878
34	1627	93	11.477354810751
34	1629	94	11.349722285444
34	1752	95	11.737734900896
34	1753	96	12.142156203456
34	1754	97	11.083205083144
34	1756	98	11.058218375609
34	1885	99	11.934142904721
34	1886	100	12.222978165132
34	1887	101	11.370764386413
34	1889	102	12.097163403562
34	2024	103	11.690324935845
34	2025	104	11.01778169816
34	2026	105	11.150671485291
34	2028	106	9.7563376599826
34	2157	107	5.2563376599826
34	2158	108	2.1768894607156
34	2159	109	2.1716772161612
34	2161	110	4.4437264827501
34	2290	111	6.5575510460373
34	2291	112	8.3874948733907
34	2292	113	10.524791158685
34	2294	114	11.376088518688
34	2423	115	11.889616344372
34	2424	116	11.072998219022
34	2425	117	12.127381764694
34	2427	118	11.635230585343
34	2550	119	12.072983265753
34	2551	120	11.969836419929
34	2552	121	11.891062633685
34	2554	122	12.121174935383
34	2677	123	11.440046816125
34	2678	124	12.001641385785
34	2679	125	11.895292164284
34	2681	126	9.9662492885729
34	2798	127	6.573719848088
34	2799	128	4.8394286883588
34	2800	129	5.5218960066851
34	2802	130	7.8835485303135
34	2919	131	9.296369903005
34	2920	132	11.849911352393
34	2921	133	11.527631704431
34	2923	134	11.635118943096
34	3034	135	11.4164433167
34	3035	136	10.82529827325
34	3036	137	6.7343233417262
34	3038	138	8.0663792137297
34	3149	139	10.261222682172
34	3150	140	11.802142970885
34	3151	141	12.023476403501
34	3153	142	12.264365292984
34	3264	143	11.843022262809
34	3265	144	12.178655780495
34	3266	145	11.998802223188
34	3268	146	11.082299498065
33	139	21	26.6
33	141	22	26.6
33	180	23	26.6
33	181	24	26.6
33	182	25	26.6
33	184	26	26.6
33	229	27	26.6
33	230	28	26.6
33	231	29	26.6
33	233	30	26.6
33	278	31	26.6
33	279	32	26.6
33	280	33	26.6
33	282	34	26.6
33	333	35	26.6
33	334	36	26.6
33	335	37	26.6
33	337	38	26.6
33	394	39	26.6
33	395	40	26.6
33	396	41	26.6
33	398	42	26.6
33	461	43	26.6
33	462	44	26.6
33	463	45	26.6
33	465	46	26.6
33	534	47	26.6
33	535	48	26.6
33	536	49	26.6
33	538	50	27.093510567842
33	607	51	30.222639021832
33	608	52	35.795189140751
33	609	53	43.446492247014
33	611	54	53.225211075722
33	686	55	64.904791176107
33	687	56	76.233910277522
33	688	57	88.178070507646
33	690	58	99.634715566851
33	771	59	111.7157911094
33	772	60	123.72052094429
33	773	61	135.62428931356
33	775	62	146.75241315899
33	862	63	158.22692574221
33	863	64	169.98925958508
33	864	65	181.74772562458
33	866	66	192.79830239399
33	959	67	204.03779465476
33	960	68	215.75496169497
33	961	69	227.50683754722
33	963	70	239.05142913055
33	1056	71	250.81465054693
33	1057	72	262.83926360009
33	1058	73	273.80643351233
33	1060	74	286.03881446625
33	1159	75	297.85869052045
33	1160	76	309.19655128796
33	1161	77	317.04843774866
33	1163	78	320.6950583172
33	1268	79	323.35308377911
33	1269	80	323.4
33	1270	81	323.4
33	1272	82	323.4
33	1383	83	323.4
33	1384	84	323.4
33	1385	85	323.4
33	1387	86	323.4
33	1504	87	323.4
33	1505	88	323.4
33	1506	89	323.4
33	1508	90	323.4
33	1625	91	323.4
33	1626	92	323.4
33	1627	93	323.4
33	1629	94	323.4
33	1752	95	323.4
33	1753	96	323.4
33	1754	97	323.4
33	1756	98	323.4
33	1885	99	323.4
33	1886	100	323.4
33	1887	101	323.4
33	1889	102	323.4
33	2024	103	323.4
33	2025	104	323.4
33	2026	105	323.4
33	2028	106	323.4
33	2157	107	323.4
33	2158	108	322.77586847097
33	2159	109	320.65698366799
33	2161	110	316.21325718524
33	2290	111	309.6557061392
33	2291	112	301.26821126581
33	2292	113	290.74342010713
33	2294	114	279.36733158844
33	2423	115	267.47771524407
33	2424	116	256.40471702504
33	2425	117	244.27733526035
33	2427	118	232.64210467501
33	2550	119	220.56912140925
33	2551	120	208.59928498933
33	2552	121	196.70822235564
33	2554	122	184.58704742026
33	2677	123	173.14700060413
33	2678	124	161.14535921835
33	2679	125	149.25006705406
33	2681	126	139.28381776549
33	2798	127	132.7100979174
33	2799	128	128.15923497737
33	2800	129	126.6
33	2802	130	126.6
33	2919	131	126.6
33	2920	132	126.6
33	2921	133	126.6
33	2923	134	126.6
33	3034	135	126.6
33	3035	136	126.6
33	3036	137	126.6
33	3038	138	126.6
33	3149	139	126.6
33	3150	140	126.6
33	3151	141	126.6
33	3153	142	126.6
33	3264	143	126.6
33	3265	144	126.6
33	3266	145	126.6
33	3268	146	126.6
32	139	21	33.3
32	141	22	35.296456682775
32	180	23	39.613332579285
32	181	24	45.949334340426
32	182	25	54.728193727182
32	184	26	64.914060003334
32	229	27	76.927318975554
32	230	28	88.836556915061
32	231	29	100.93252096339
32	233	30	112.13117843616
32	278	31	124.32059182521
32	279	32	135.45689792507
32	280	33	146.59990218898
32	282	34	158.8215540377
32	333	35	169.94733535398
32	334	36	181.933427167
32	335	37	194.13313440369
32	337	38	205.55124919715
32	394	39	217.10023141484
32	395	40	228.58972318701
32	396	41	239.91872593164
32	398	42	251.56178092213
32	461	43	263.4458714302
32	462	44	274.87651699243
32	463	45	286.4468838584
32	465	46	298.50304185939
32	534	47	310.04494591122
32	535	48	317.08684996305
32	536	49	320.67638406092
32	538	50	323.05610634071
32	607	51	323.4
32	608	52	323.4
32	609	53	323.4
32	611	54	323.4
32	686	55	323.4
32	687	56	323.4
32	688	57	323.4
32	690	58	323.4
32	771	59	323.4
32	772	60	323.4
32	773	61	323.4
32	775	62	323.4
32	862	63	323.4
32	863	64	323.4
32	864	65	323.4
32	866	66	323.4
32	959	67	323.4
32	960	68	323.4
32	961	69	323.4
32	963	70	323.4
32	1056	71	323.4
32	1057	72	323.4
32	1058	73	323.4
32	1060	74	323.4
32	1159	75	323.4
32	1160	76	323.4
32	1161	77	323.4
32	1163	78	323.4
32	1268	79	322.12841354623
32	1269	80	319.1912100999
32	1270	81	314.13867056012
32	1272	82	307.22038264695
32	1383	83	298.29066155438
32	1384	84	287.40732136683
32	1385	85	276.18086265208
32	1387	86	264.06292610673
32	1504	87	252.57918125698
32	1505	88	240.90022221749
32	1506	89	229.53643890511
32	1508	90	217.44358816347
32	1625	91	205.18419834313
32	1626	92	194.17044430326
32	1627	93	182.6930894925
32	1629	94	171.34336720706
32	1752	95	159.60563230616
32	1753	96	147.46347610271
32	1754	97	136.38027101956
32	1756	98	125.32205264395
32	1885	99	113.38790973923
32	1886	100	101.1649315741
32	1887	101	89.794167187689
32	1889	102	77.697003784127
32	2024	103	66.006678848283
32	2025	104	54.988897150122
32	2026	105	43.838225664831
32	2028	106	34.081888004848
32	2157	107	28.825550344866
32	2158	108	26.865521082583
32	2159	109	26.6
32	2161	110	26.6
32	2290	111	26.6
32	2291	112	26.6
32	2292	113	26.6
32	2294	114	26.6
32	2423	115	26.6
32	2424	116	26.6
32	2425	117	26.6
32	2427	118	26.6
32	2550	119	26.6
32	2551	120	26.6
32	2552	121	26.6
32	2554	122	26.6
32	2677	123	26.6
32	2678	124	26.6
32	2679	125	26.6
32	2681	126	26.6
32	2798	127	26.6
32	2799	128	27.904459013576
32	2800	129	33.021226777642
32	2802	130	40.904775307955
32	2919	131	50.20114521096
32	2920	132	62.051056563353
32	2921	133	73.578688267784
32	2923	134	85.21380721088
32	3034	135	96.63025052758
32	3035	136	107.45554880083
32	3036	137	114.18987214256
32	3038	138	122.25625135629
32	3149	139	132.51747403846
32	3150	140	144.31961700934
32	3151	141	156.34309341284
32	3153	142	168.60745870583
32	3264	143	180.45048096864
32	3265	144	192.62913674913
32	3266	145	204.62793897232
32	3268	146	215.71023847039
43	230	28	3.1440508495427
43	231	29	4.6117456526674
43	233	30	6.8456328224382
43	278	31	5.6899780989251
43	279	32	8.9756097909226
43	280	33	7.5502833425257
43	282	34	4.8243891274803
43	333	35	4.0284078846964
43	334	36	2.8154327874633
43	335	37	1.660915909545
43	337	38	3.28165167222
43	394	39	3.013594660963
43	395	40	0.973
43	396	41	0.973
43	398	42	0.973
43	461	43	2.4898899389663
43	462	44	0.973
43	463	45	0.973
43	465	46	1.3350869734018
43	534	47	3.9565283170445
43	535	48	0.973
43	536	49	0.973
43	538	50	0.973
43	607	51	0.973
43	608	52	1.5190588953976
43	609	53	1.7904145143049
43	611	54	0.973
43	686	55	3.2079227208207
43	687	56	4.001721979189
43	688	57	6.6381262265337
43	690	58	7.9161646737223
43	771	59	8.5310306333576
43	772	60	8.9910490930689
43	773	61	4.4595865530182
43	775	62	0.973
43	862	63	0.973
43	863	64	0.973
43	864	65	1.9846168467577
43	866	66	3.6914162212503
43	959	67	0.973
43	960	68	4.5146191102419
43	961	69	3.1897895044827
43	963	70	0.973
43	1056	71	1.4509731117857
43	1057	72	0.973
43	1058	73	3.0699431399199
43	1060	74	0.973
43	1159	75	8.0302235487769
43	1160	76	0.973
43	1161	77	0.973
43	1163	78	0.973
43	1268	79	0.973
43	1269	80	1.3187318950692
43	1270	81	0.973
43	1272	82	2.9467474340093
43	1383	83	0.973
43	1384	84	4.5597155534614
43	1385	85	5.262400788182
43	1387	86	7.336330252801
43	1504	87	6.743713781383
43	1505	88	8.0152510166712
43	1506	89	5.002969520241
43	1508	90	0.973
43	1625	91	1.9442166096447
43	1626	92	1.4107980297374
43	1627	93	0.973
43	1629	94	6.0628620249643
43	1752	95	0.973
43	1753	96	2.9795402033495
43	1754	97	2.4711237837112
43	1756	98	0.973
43	1885	99	4.12505203438
43	1886	100	1.4470797940756
43	1887	101	4.0877723249816
43	1889	102	0.973
43	2024	103	2.5566743686341
43	2025	104	2.3450079768737
43	2026	105	1.2680608966477
43	2028	106	0.973
43	2157	107	0.973
43	2158	108	0.973
43	2159	109	0.973
43	2161	110	0.973
43	2290	111	3.4340275058128
43	2291	112	0.973
43	2292	113	3.1306765025083
43	2294	114	6.0931543560119
43	2423	115	4.8337249898573
43	2424	116	6.0044049262542
43	2425	117	8.79423242516
43	2427	118	7.2367582675246
43	2550	119	0.973
43	2551	120	3.3064936846439
43	2552	121	0.973
43	2554	122	2.5436676132252
43	2677	123	0.973
43	2678	124	0.973
43	2679	125	2.8264339944836
43	2681	126	4.4600045050787
[...]
123	4451	208	275.63381055346
123	4452	209	266.67125910775
123	4454	210	257.29840257915
123	4487	211	248.32509829875
123	4488	212	238.31244594345
123	4489	213	228.52784266577
124	4376	199	35.454346811408
124	4377	200	28.408091047197
124	4378	201	24.983229408237
124	4380	202	23.543485117274
124	4413	203	23.4
124	4414	204	23.4
124	4415	205	23.4
124	4417	206	23.4
124	4450	207	23.4
124	4451	208	23.4
124	4452	209	23.4
124	4454	210	23.4
124	4487	211	23.4
124	4488	212	23.4
124	4489	213	23.4
125	4376	199	9.3047997227988
125	4377	200	7.0462557642113
125	4378	201	3.6312425598363
125	4380	202	3.3024143194408
125	4413	203	3.9626128504845
125	4414	204	5.9888597570919
125	4415	205	8.4914265943086
125	4417	206	9.9737155996149
125	4450	207	9.8305183944876
125	4451	208	8.9334904184683
125	4452	209	8.9625514457121
125	4454	210	9.3728565286032
125	4487	211	8.9733042803944
125	4488	212	10.012652355305
125	4489	213	9.7846032776755
126	4376	199	0.27827439678367
126	4377	200	-2.2585439585876
126	4378	201	-3.415013204375
126	4380	202	-0.32882824039552
126	4413	203	0.66019853104372
126	4414	204	2.0262469066074
126	4415	205	2.5025668372167
126	4417	206	1.4822890053062
126	4450	207	-0.14319720512722
126	4451	208	-0.89702797601931
126	4452	209	0.029061027243733
126	4454	210	0.41030508289114
126	4487	211	-0.39955224820878
126	4488	212	1.0393480749102
126	4489	213	-0.22804907762911
127	4376	199	2.2573025387231
127	4377	200	0.973
127	4378	201	0.973
127	4380	202	0.973
127	4413	203	1.9373872504403
127	4414	204	4.3432584559131
127	4415	205	6.697524490864
127	4417	206	5.2457112795221
127	4450	207	1.3327289212024
127	4451	208	0.973
127	4452	209	1.6716316199845
127	4454	210	2.5650333450283
127	4487	211	0.973
127	4488	212	4.1937383755826
127	4489	213	0.973
130	4376	199	326.6
130	4377	200	326.6
130	4378	201	326.6
130	4380	202	326.6
130	4413	203	326.6
130	4414	204	326.01411429237
130	4415	205	321.78057252924
130	4417	206	314.87867382351
130	4450	207	305.59513895671
130	4451	208	295.48590824717
130	4452	209	285.92202255689
130	4454	210	277.14931600985
130	4487	211	267.46231214235
130	4488	212	257.79816319753
130	4489	213	247.80988118527
131	4376	199	54.363152539048
131	4377	200	45.151049882606
131	4378	201	37.62830880146
131	4380	202	33.871678528482
131	4413	203	29.417122584008
131	4414	204	25.623523820611
131	4415	205	23.4
131	4417	206	23.4
131	4450	207	23.4
131	4451	208	23.4
131	4452	209	23.4
131	4454	210	23.4
131	4487	211	23.4
131	4488	212	23.4
131	4489	213	23.4
132	4376	199	9.4015695173861
132	4377	200	9.2121026564419
132	4378	201	7.5227410811468
132	4380	202	3.7566302729773
132	4413	203	4.4545559444746
132	4414	204	3.8936858038793
132	4415	205	5.0828642508924
132	4417	206	6.9018987057242
132	4450	207	9.283534866802
132	4451	208	10.109230709543
132	4452	209	9.5638856902803
132	4454	210	8.7727065470321
132	4487	211	9.687003867508
132	4488	212	9.6641489448138
132	4489	213	9.9882820122641
133	4376	199	0.18669749782502
133	4377	200	-0.18946686094418
133	4378	201	-1.6893615752952
133	4380	202	-3.7661108081694
133	4413	203	0.69792567149726
133	4414	204	-0.5608701405953
133	4415	205	1.1891784470131
133	4417	206	1.8190344548319
133	4450	207	2.3816361610778
133	4451	208	0.82569584274061
133	4452	209	-0.54534501926231
133	4454	210	-0.79117914324823
133	4487	211	0.91429732047595
133	4488	212	-0.022854922694188
133	4489	213	0.32413306745029
134	4376	199	2.0633137042102
134	4377	200	0.973
134	4378	201	0.973
134	4380	202	0.973
134	4413	203	2.0823100348694
134	4414	204	0.973
134	4415	205	2.824036677316
134	4417	206	4.4990247097972
134	4450	207	6.9602599215466
134	4451	208	3.7047716337546
134	4452	209	0.973
134	4454	210	0.973
134	4487	211	3.7957635503364
134	4488	212	1.6063483772328
134	4489	213	2.4641345657015
137	4376	199	326.6
137	4377	200	326.6
137	4378	201	326.6
137	4380	202	326.6
137	4413	203	326.6
137	4414	204	326.6
137	4415	205	326.6
137	4417	206	326.6
137	4450	207	325.12439477924
137	4451	208	319.99364684679
137	4452	209	313.24135064338
137	4454	210	305.10789750039
137	4487	211	294.71370805996
137	4488	212	282.01691009077
137	4489	213	270.23649860234
138	4376	199	72.391227975867
138	4377	200	63.179845167443
138	4378	201	53.711383911514
138	4380	202	46.790506595723
138	4413	203	43.040251822613
138	4414	204	38.643775133411
138	4415	205	34.786866058695
138	4417	206	28.87407842799
138	4450	207	24.434636867544
138	4451	208	23.4
138	4452	209	23.4
138	4454	210	23.4
138	4487	211	23.4
138	4488	212	23.4
138	4489	213	23.4
139	4376	199	9.6323279700122
139	4377	200	9.2113828084236
139	4378	201	9.4684612559297
139	4380	202	6.9208773157906
139	4413	203	3.7502547731098
139	4414	204	4.3964766892017
139	4415	205	3.8569090747168
139	4417	206	5.9127876307041
139	4450	207	4.8654362709903
139	4451	208	5.3549953102077
139	4452	209	6.7522962034158
139	4454	210	8.1334531429865
139	4487	211	10.39418944043
139	4488	212	12.696797969187
139	4489	213	11.780411488436
140	4376	199	0.085574987433262
140	4377	200	-0.42094516158862
140	4378	201	0.25707844750605
140	4380	202	-2.547583940139
140	4413	203	-3.1706225426808
140	4414	204	0.64622191609187
140	4415	205	-0.53956761448489
140	4417	206	2.0558785559873
140	4450	207	-1.0473513597138
140	4451	208	0.48955903921742
140	4452	209	1.397300893208
140	4454	210	1.3811569395708
140	4487	211	2.2607362974435
140	4488	212	2.3026085287565
140	4489	213	-0.91638648075033
141	4376	199	1.8558759006678
141	4377	200	0.973
141	4378	201	2.2318027893831
141	4380	202	0.973
141	4413	203	0.973
141	4414	204	2.0146413505105
141	4415	205	0.973
141	4417	206	4.3439187531156
141	4450	207	0.973
141	4451	208	2.0143129603644
141	4452	209	3.7380030822386
141	4454	210	4.2593541314744
141	4487	211	7.3782989457403
141	4488	212	8.9573947940238
141	4489	213	0.973
144	4376	199	326.6
144	4377	200	326.6
144	4378	201	326.6
144	4380	202	326.6
144	4413	203	326.6
144	4414	204	326.6
144	4415	205	326.6
144	4417	206	326.6
144	4450	207	326.6
144	4451	208	326.6
144	4452	209	326.45136203105
144	4454	210	321.60091631993
144	4487	211	313.17883174122
144	4488	212	303.30342767053
144	4489	213	291.65691692321
145	4376	199	91.315440692583
145	4377	200	81.731317368768
145	4378	201	72.473126858503
145	4380	202	63.679573753258
145	4413	203	56.419077837876
145	4414	204	51.606306114884
145	4415	205	47.037318860701
145	4417	206	43.695555153484
145	4450	207	37.809498619922
145	4451	208	33.056322440228
145	4452	209	27.159534217366
145	4454	210	23.4
145	4487	211	23.4
145	4488	212	23.4
145	4489	213	23.4
146	4376	199	9.5383026550912
146	4377	200	9.5841233238147
146	4378	201	9.2581905102653
146	4380	202	8.7935531052454
146	4413	203	7.2604959153818
146	4414	204	4.8127717229924
146	4415	205	4.568987254183
146	4417	206	3.3417637072167
146	4450	207	5.8860565335619
146	4451	208	4.7531761796934
146	4452	209	5.9071870679717
146	4454	210	6.8882190523244
146	4487	211	8.4220845787118
146	4488	212	9.8754040706953
146	4489	213	11.646510747313
147	4376	199	1.1303083052864
147	4377	200	0.045820668723513
147	4378	201	-0.32593281354941
147	4380	202	-0.46463740501988
147	4413	203	-1.5330571898636
147	4414	204	-2.4477241923894
147	4415	205	-0.24378446880941
147	4417	206	-1.2272235469663
147	4450	207	2.5442928263452
147	4451	208	-1.1328803538685
147	4452	209	1.1540108882783
147	4454	210	0.98103198435272
147	4487	211	1.5338655263874
147	4488	212	1.4533194919835
147	4489	213	1.7711066766176
148	4376	199	4.2485676130246
148	4377	200	1.7594995718759
148	4378	201	0.973
148	4380	202	0.973
148	4413	203	0.973
148	4414	204	0.973
148	4415	205	0.973
148	4417	206	0.973
148	4450	207	5.0219620431649
148	4451	208	0.973
148	4452	209	3.0568917303261
148	4454	210	3.1010525349394
148	4487	211	4.6847888789767
148	4488	212	5.1342184588061
148	4489	213	6.7889212417009
123	4491	214	218.92513317731
123	4524	215	210.06953169539
123	4525	216	200.21967659196
123	4526	217	190.791746217
123	4528	218	181.86958065058
124	4491	214	23.4
124	4524	215	23.4
124	4525	216	23.4
124	4526	217	23.4
124	4528	218	23.4
125	4491	214	9.6027094884661
125	4524	215	8.8556014819189
125	4525	216	9.8498551034254
125	4526	217	9.4279303749676
125	4528	218	8.9221655664153
126	4491	214	-0.18189378920943
126	4524	215	-0.7471080065472
126	4525	216	0.9942536215065
126	4526	217	-0.42192472845782
126	4528	218	-0.50576480855234
127	4491	214	1.2340866038975
127	4524	215	0.973
127	4525	216	4.0336112285645
127	4526	217	0.973
127	4528	218	0.973
130	4491	214	237.77075057825
130	4524	215	228.43215176613
130	4525	216	219.86209152809
130	4526	217	209.68823435615
130	4528	218	200.7187878231
131	4491	214	23.4
131	4524	215	23.4
131	4525	216	23.4
131	4526	217	23.4
131	4528	218	23.4
132	4491	214	10.039130607018
132	4524	215	9.3385988121219
132	4525	216	8.5700602380369
132	4526	217	10.173857171937
132	4528	218	8.9694465330525
133	4491	214	0.050848594754269
133	4524	215	-0.70053179489648
133	4525	216	-0.76853857408495
133	4526	217	1.6037969339005
133	4528	218	-1.2044106388849
134	4491	214	1.8107798818662
134	4524	215	0.973
134	4525	216	0.973
134	4526	217	5.6304172490043
134	4528	218	0.973
137	4491	214	259.12438219705
137	4524	215	248.30206355
137	4525	216	238.77582358571
137	4526	217	229.40483509729
137	4528	218	219.5797360879
138	4491	214	23.4
138	4524	215	23.4
138	4525	216	23.4
138	4526	217	23.4
138	4528	218	23.4
139	4491	214	11.112116405291
139	4524	215	10.822318647041
139	4525	216	9.5262399642972
139	4526	217	9.3709884884139
139	4528	218	9.8250990093981
140	4491	214	-0.66829508314489
140	4524	215	-0.28979775825055
140	4525	216	-1.2960786827437
140	4526	217	-0.15525147588326
140	4528	218	0.45411052098422
141	4491	214	0.973
141	4524	215	0.973
141	4525	216	0.973
141	4526	217	1.2874554566138
141	4528	218	2.7468438717605
144	4491	214	279.47685334393
144	4524	215	268.30092202938
144	4525	216	257.7311810558
144	4526	217	248.55986171423
144	4528	218	238.60823708197
145	4491	214	23.4
145	4524	215	23.4
145	4525	216	23.4
145	4526	217	23.4
145	4528	218	23.4
146	4491	214	12.180063579279
146	4524	215	11.175931314551
146	4525	216	10.569740973586
146	4526	217	9.1713193415691
146	4528	218	9.9516246322546
147	4491	214	0.53355283196634
147	4524	215	-1.0041322647286
147	4525	216	-0.60619034096493
147	4526	217	-1.3984216320166
147	4528	218	0.78030529068549
148	4491	214	3.4306797442147
148	4524	215	0.973
148	4525	216	0.973
148	4526	217	0.973
148	4528	218	3.5525496583031
127	4561	219	4.2585726722249
127	4562	220	0.973
127	4563	221	2.0433299280756
127	4565	222	4.0739249340344
127	4598	223	0.973
127	4599	224	3.8965588914656
127	4600	225	0.973
127	4602	226	3.6974224800816
127	4635	227	0.973
127	4636	228	1.6527407391985
127	4637	229	1.8544314249715
127	4639	230	1.3482554180194
127	4672	231	2.0916334528345
127	4673	232	0.973
127	4674	233	2.9333212410885
127	4676	234	0.973
126	4561	219	1.0691643622005
126	4562	220	-1.2221553657902
126	4563	221	0.20074025185313
126	4565	222	0.99583566212095
126	4598	223	-0.84432086017914
126	4599	224	0.91346269086935
126	4600	225	-1.0276821780484
126	4602	226	0.85157503739465
126	4635	227	-0.7260792092653
126	4636	228	0.013978595100342
126	4637	229	0.10107164350338
126	4639	230	-0.12372366311029
126	4672	231	0.2031838433817
126	4673	232	-0.3029297570698
126	4674	233	0.55449757771567
126	4676	234	-0.57602875572629
125	4561	219	9.9913299286158
125	4562	220	8.7691745628256
125	4563	221	8.9699148146787
125	4565	222	9.9657504767996
125	4598	223	9.1214296166205
125	4599	224	10.03489230749
125	4600	225	9.0072101294414
125	4602	226	9.8587851668361
125	4635	227	9.1327059575708
125	4636	228	9.1466845526711
125	4637	229	9.2477561961745
125	4639	230	9.1240325330642
125	4672	231	9.3272163764459
125	4673	232	9.0242866193761
125	4674	233	9.5787841970918
125	4676	234	9.0027554413655
124	4561	219	23.4
124	4562	220	23.4
124	4563	221	23.4
124	4565	222	23.4
124	4598	223	23.4
124	4599	224	23.4
124	4600	225	23.4
124	4602	226	23.4
124	4635	227	23.4
124	4636	228	23.4
124	4637	229	23.4
124	4639	230	23.4
124	4672	231	23.4
124	4673	232	23.4
124	4674	233	23.4
124	4676	234	23.4
123	4561	219	171.87825072196
123	4562	220	163.10907615914
123	4563	221	154.13916134446
123	4565	222	144.17341086766
123	4598	223	135.05198125104
123	4599	224	125.01708894355
123	4600	225	116.00987881411
123	4602	226	106.15109364727
123	4635	227	97.018387689702
123	4636	228	87.871703137031
123	4637	229	78.623946940857
123	4639	230	69.499914407792
123	4672	231	60.172698031346
123	4673	232	51.14841141197
123	4674	233	41.569627214879
123	4676	234	32.566871773513
134	4561	219	2.4597099801392
134	4562	220	3.569159546361
134	4563	221	0.973
134	4565	222	2.6176251458307
134	4598	223	0.973
134	4599	224	1.4037485438013
134	4600	225	5.1310114918269
134	4602	226	0.973
134	4635	227	1.8845187291271
134	4636	228	1.3004355882178
134	4637	229	1.4062295423432
134	4639	230	0.973
134	4672	231	1.4057022552193
134	4673	232	0.973
134	4674	233	0.973
134	4676	234	3.2727308311806
134	4709	235	2.6113899801218
134	4710	236	8.0860792480237
133	4561	219	0.36631825675092
133	4562	220	0.77036681755349
133	4563	221	-1.1500551394241
133	4565	222	0.43236734985872
133	4598	223	-0.25067817188849
133	4599	224	-0.096683561997104
133	4600	225	1.3621483543052
133	4602	226	-0.79637178705057
133	4635	227	0.095006910387236
133	4636	228	-0.15237478711532
133	4637	229	-0.10422671790316
133	4639	230	-0.39894019467966
133	4672	231	-0.093832919243567
133	4673	232	-0.22468458719696
133	4674	233	-0.40721701786019
133	4676	234	0.75685202327493
133	4709	235	0.42112153513624
133	4710	236	2.2178083016071
132	4561	219	9.3357647898034
132	4562	220	10.106131607357
132	4563	221	8.9560764679328
132	4565	222	9.3884438177915
132	4598	223	9.1377656459031
132	4599	224	9.0410820839059
132	4600	225	10.403230438211
132	4602	226	9.6068586511606
132	4635	227	9.7018655615478
132	4636	228	9.5494907744325
132	4637	229	9.4452640565293
132	4639	230	9.0463238618497
132	4672	231	8.9524909426061
132	4673	232	8.7278063554092
132	4674	233	8.320589337549
132	4676	234	9.0774413608239
132	4709	235	9.4985628959601
132	4710	236	11.716371197567
131	4561	219	23.4
131	4562	220	23.4
131	4563	221	23.4
131	4565	222	23.4
131	4598	223	23.4
131	4599	224	23.4
131	4600	225	23.4
131	4602	226	23.4
131	4635	227	23.4
131	4636	228	23.4
131	4637	229	23.4
131	4639	230	23.4
131	4672	231	23.4
131	4673	232	23.4
131	4674	233	23.4
131	4676	234	23.4
131	4709	235	23.4
131	4710	236	23.4
130	4561	219	191.3830230333
130	4562	220	181.27689142594
130	4563	221	172.32081495801
130	4565	222	162.93237114022
130	4598	223	153.79460549431
130	4599	224	144.75352341041
130	4600	225	134.3502929722
130	4602	226	124.74343432104
130	4635	227	115.04156875949
130	4636	228	105.49207798506
130	4637	229	96.046813928527
130	4639	230	87.000490066677
130	4672	231	78.047999124071
130	4673	232	69.320192768662
130	4674	233	60.999603431113
130	4676	234	51.922162070289
130	4709	235	42.423599174329
130	4710	236	30.707227976761
141	4561	219	1.2266270668614
141	4562	220	1.9809605453429
141	4563	221	1.2301795340917
141	4565	222	1.5515573912344
141	4598	223	2.1160010011243
141	4599	224	0.973
141	4600	225	1.510903881558
141	4602	226	4.9420453503946
141	4635	227	0.973
141	4636	228	1.5923852800153
141	4637	229	2.7056779257468
141	4639	230	1.5483685777878
141	4672	231	0.973
141	4673	232	3.0460541551574
141	4674	233	0.973
141	4676	234	1.3777365586908
141	4709	235	0.973
141	4710	236	5.2989365467898
141	4711	237	7.815505883053
140	4561	219	-0.1855810186482
140	4562	220	0.13303205307314
140	4563	221	-0.18340875949103
140	4565	222	-0.04316280545326
140	4598	223	0.19213748484178
140	4599	224	-0.42114897749337
140	4600	225	-0.053482810749863
140	4602	226	1.2672494027812
140	4635	227	-1.4133916617106
140	4636	228	-0.012115118805646
140	4637	229	0.45718936220006
140	4639	230	-0.043801159283094
140	4672	231	-0.99777870740862
140	4673	232	0.644168572356
140	4674	233	-0.2596050242105
140	4676	234	-0.10364372330289
140	4709	235	-0.51016871992097
140	4710	236	1.5321724060904
140	4711	237	2.0824090942415
139	4561	219	9.6395179907499
139	4562	220	9.7725500438231
139	4563	221	9.589141284332
139	4565	222	9.5459784788788
139	4598	223	9.7381159637205
139	4599	224	9.3169669862272
139	4600	225	9.2634841754773
139	4602	226	10.530733578258
139	4635	227	9.1173419165479
139	4636	228	9.1052267977422
139	4637	229	9.5624161599423
139	4639	230	9.5186150006592
139	4672	231	8.5208362932506
139	4673	232	9.1650048656066
139	4674	233	8.9053998413961
139	4676	234	8.8017561180932
139	4709	235	8.2915873981722
139	4710	236	9.8237598042626
139	4711	237	11.906168898504
138	4561	219	23.4
138	4562	220	23.4
138	4563	221	23.4
138	4565	222	23.4
138	4598	223	23.4
138	4599	224	23.4
138	4600	225	23.4
138	4602	226	23.4
138	4635	227	23.4
138	4636	228	23.4
138	4637	229	23.4
138	4639	230	23.4
138	4672	231	23.4
138	4673	232	23.4
138	4674	233	23.4
138	4676	234	23.4
138	4709	235	23.4
138	4710	236	23.4
138	4711	237	23.4
137	4561	219	209.94021809715
137	4562	220	200.16766805332
137	4563	221	190.57852676899
137	4565	222	181.03254829011
137	4598	223	171.29443232639
137	4599	224	161.97746534016
137	4600	225	152.71398116469
137	4602	226	142.18324758643
137	4635	227	133.06590566988
137	4636	228	123.96067887214
137	4637	229	114.3982627122
137	4639	230	104.87964771154
137	4672	231	96.358811418286
137	4673	232	87.19380655268
137	4674	233	78.288406711284
137	4676	234	69.48665059319
137	4709	235	61.195063195018
137	4710	236	51.371303390756
137	4711	237	39.465134492251
148	4561	219	2.2069654841483
148	4562	220	0.973
148	4563	221	0.973
148	4565	222	1.5459336562451
148	4598	223	4.2140112386916
148	4599	224	0.973
148	4600	225	2.4275894343432
148	4602	226	0.973
148	4635	227	8.0582187583804
148	4636	228	0.973
148	4637	229	2.8431547615556
148	4639	230	3.0568943027084
148	4672	231	0.973
148	4673	232	0.973
148	4674	233	4.2197580749919
148	4676	234	0.973
148	4709	235	0.973
148	4710	236	0.973
148	4711	237	6.5531328687655
148	4713	238	9.2321474144552
148	4728	239	7.3539999888988
147	4561	219	0.20827562487831
147	4562	220	-0.64155231151093
147	4563	221	-0.37969415782439
147	4565	222	-0.033287774434266
147	4598	223	1.0310831232189
147	4599	224	-0.87954563236101
147	4600	225	0.33457395953932
147	4602	226	-0.78310795209227
147	4635	227	2.3386231382377
147	4636	228	-2.5978667041283
147	4637	229	0.55772555681185
147	4639	230	0.5962988081311
147	4672	231	-0.36493347428944
147	4673	232	-1.0556462670644
147	4674	233	1.1358637782637
147	4676	234	-0.25932520524121
147	4709	235	-0.70235021365803
147	4710	236	-0.29561971853515
147	4711	237	1.9861443837639
147	4713	238	2.4208244140493
147	4728	239	1.5575143779861
146	4561	219	10.159900257133
146	4562	220	9.518347945622
146	4563	221	9.1386537877976
146	4565	222	9.1053660133633
146	4598	223	10.136449136582
146	4599	224	9.2569035042212
146	4600	225	9.5914774637605
146	4602	226	8.8083695116682
146	4635	227	11.146992649906
146	4636	228	8.5491259457776
146	4637	229	9.1068515025895
146	4639	230	9.7031503107206
146	4672	231	9.3382168364312
146	4673	232	8.2825705693667
146	4674	233	9.4184343476304
146	4676	234	9.1591091423892
146	4709	235	8.4567589287312
146	4710	236	8.161139210196
146	4711	237	10.14728359396
146	4713	238	12.568108008009
146	4728	239	14.125622385995
145	4561	219	23.4
145	4562	220	23.4
145	4563	221	23.4
145	4565	222	23.4
145	4598	223	23.4
145	4599	224	23.4
145	4600	225	23.4
145	4602	226	23.4
145	4635	227	23.4
145	4636	228	23.4
145	4637	229	23.4
145	4639	230	23.4
145	4672	231	23.4
145	4673	232	23.4
145	4674	233	23.4
145	4676	234	23.4
145	4709	235	23.4
145	4710	236	23.4
145	4711	237	23.4
145	4713	238	23.4
145	4728	239	23.4
144	4561	219	228.44833682484
144	4562	220	218.92998887922
144	4563	221	209.79133509142
144	4565	222	200.68596907806
144	4598	223	190.54951994148
144	4599	224	181.29261643725
144	4600	225	171.70113897349
144	4602	226	162.89276946183
144	4635	227	151.74577681192
144	4636	228	143.19665086614
144	4637	229	134.08979936355
144	4639	230	124.38664905283
144	4672	231	115.0484322164
144	4673	232	106.76586164703
144	4674	233	97.347427299403
144	4676	234	88.188318157014
144	4709	235	79.731559228283
144	4710	236	71.570420018087
144	4711	237	61.423136424127
144	4713	238	48.855028416118
144	4728	239	34.729406030123

